                   SWAT+               
             Revision unknown  
      Soil & Water Assessment Tool    
GNU (13.3.0), 2025-08-31 20:07:47, Linux
    Program reading . . . executing


  Date of Sim   8/31/2025 Time  20:11: 5
 reading from pet file                   Time  20:11: 5
 reading from precipitation file         Time  20:11: 5
 reading from temperature file           Time  20:11: 5
 reading from solar radiation file       Time  20:11: 5
 reading from relative humidity file     Time  20:11: 5
 reading from wind file                  Time  20:11: 5
 reading from wgn file                   Time  20:11: 5
 reading from wx station file            Time  20:11: 5
