 ceap_02080206             SWAT+ 2025-06-27        MODULAR Rev 2025.61.0.2.11-158-g240face                
                                        zmx       usle_k       sumfc       sumul      usle_p     usle_ls        esco        epco     cn3_swf       perco     latq_co   tiledrain 
 sname           hydgrp                 (mm)                    (mm)        (mm)                                                                                     0=notile;1=tile;
140122          A                  2030.0000      0.0000     81.2000    794.0012      1.0000      1.3432      0.0000      1.0000      0.7234      1.0000      0.0756           0
119204          C                  2000.0000      0.0000    234.0000    625.3223      1.0000      0.1131      0.0000      1.0000      0.8705      0.6930      0.0756           0
119204          C                  2000.0000      0.0000    234.0000    625.3223      1.0000      0.2575      0.0000      1.0000      0.8705      0.6930      0.0756           0
119227          C                  2000.0000      0.0000    236.4000    509.0930      1.0000      0.7401      0.0000      1.0000      0.7234      0.6930      0.0756           0
119258          B                  2000.0000      0.0000    180.6000    564.9366      1.0000      0.9720      0.0000      1.0000      0.7234      1.0000      0.0756           0
119291          B                  2000.0000      0.0000    232.8000    435.2683      1.0000      1.1956      0.0000      1.0000      0.4234      0.6930      0.1159           0
119247          A                  2000.0000      0.0000    187.6000    624.0846      1.0000      0.1023      0.0000      1.0000      0.8705      1.0000      0.0756           0
119302          D                  1524.0000      0.0000    152.4000    310.9075      1.0000      0.6468      0.0000      1.0000      0.7234      0.2430      0.0756           0
119266          B                  2510.0000      0.0000    200.8000    698.0949      1.0000      0.2435      0.0000      1.0000      0.8705      1.0000      0.0756           0
119247          A                  2000.0000      0.0000    187.6000    624.0846      1.0000      0.1493      0.0000      1.0000      0.8705      1.0000      0.0756           0
119283          B                  2000.0000      0.0000    219.2000    577.1096      1.0000      0.3126      0.0000      1.0000      0.8705      1.0000      0.0756           0
119267          B                  2510.0000      0.0000    200.8000    698.0949      1.0000      0.3067      0.0000      1.0000      0.8705      1.0000      0.0756           0
119283          B                  2000.0000      0.0000    219.2000    577.1096      1.0000      0.4764      0.0000      1.0000      0.8705      1.0000      0.0756           0
119266          B                  2510.0000      0.0000    200.8000    698.0949      1.0000      0.4334      0.0000      1.0000      0.8705      1.0000      0.0756           0
119204          C                  2000.0000      0.0000    234.0000    625.3223      1.0000      0.0801      0.0000      1.0000      0.8705      0.9500      0.0756           0
119274          B                  2000.0000      0.0000    320.0000    822.2295      1.0000      0.5099      0.0000      1.0000      0.8705      1.0000      0.0756           0
119257          B                  2000.0000      0.0000    180.6000    564.9366      1.0000      0.1050      0.0000      1.0000      0.8705      1.0000      0.0756           0
119247          A                  2000.0000      0.0000    187.6000    624.0846      1.0000      0.0893      0.0000      1.0000      0.8705      1.0000      0.0756           0
119261          C                  1570.0000      0.0000    152.9000    606.4538      1.0000      0.6590      0.0000      1.0000      0.7234      0.9500      0.0756           0
119266          B                  2510.0000      0.0000    200.8000    698.0949      1.0000      0.2738      0.0000      1.0000      0.8705      1.0000      0.0756           0
119266          B                  2510.0000      0.0000    200.8000    698.0949      1.0000      0.3079      0.0000      1.0000      0.8705      1.0000      0.0756           0
119192          D                  2000.0000      0.0000    316.0000    439.0491      1.0000      0.1078      0.0000      1.0000      0.8705      0.9500      0.0756           0
140122          A                  2030.0000      0.0000     81.2000    794.0012      1.0000      0.6241      0.0000      1.0000      0.8705      1.0000      0.0756           0
119302          D                  1524.0000      0.0000    152.4000    310.9075      1.0000      0.4575      0.0000      1.0000      0.7234      0.2430      0.0756           0
119296          D                  1520.0000      0.0000     45.6000    129.6303      1.0000      0.2328      0.0000      1.0000      0.8705      0.2430      0.0756           0
119296          D                  1520.0000      0.0000     45.6000    129.6303      1.0000      0.2328      0.0000      1.0000      0.8705      0.2430      0.0756           0
119247          A                  2000.0000      0.0000    187.6000    624.0846      1.0000      0.2010      0.0000      1.0000      0.8705      1.0000      0.0756           0
119253          B                  2000.0000      0.0000    229.2000    634.9839      1.0000      0.1251      0.0000      1.0000      0.8705      0.2430      0.0756           0
119204          C                  2000.0000      0.0000    234.0000    625.3223      1.0000      0.1476      0.0000      1.0000      0.8705      0.6930      0.0756           0
140117          B                  1780.0000      0.0000    203.1000    506.2238      1.0000      0.2931      0.0000      1.0000      0.8705      1.0000      0.0756           0
140117          B                  1780.0000      0.0000    203.1000    506.2238      1.0000      0.2931      0.0000      1.0000      0.8705      1.0000      0.0756           0
140117          B                  1780.0000      0.0000    203.1000    506.2238      1.0000      0.1991      0.0000      1.0000      0.8705      1.0000      0.0756           0
140054          D                  1520.0000      0.0000     45.6000    129.6303      1.0000      0.3971      0.0000      1.0000      0.7234      0.2430      0.0756           0
140073          C                  4140.0000      0.0000    458.9000   1091.9421      1.0000      0.3397      0.0000      1.0000      0.7234      0.6930      0.0756           0
140085          B                  2030.0000      0.0000    186.8000    705.4000      1.0000      0.3643      0.0000      1.0000      0.8705      1.0000      0.0756           0
140073          C                  4140.0000      0.0000    458.9000   1091.9421      1.0000      0.3417      0.0000      1.0000      0.7234      0.6930      0.0756           0
140054          D                  1520.0000      0.0000     45.6000    129.6303      1.0000      0.3507      0.0000      1.0000      0.7234      0.2430      0.0756           0
140054          D                  1520.0000      0.0000     45.6000    129.6303      1.0000      0.3507      0.0000      1.0000      0.7234      0.2430      0.0756           0
140054          D                  1520.0000      0.0000     45.6000    129.6303      1.0000      0.3008      0.0000      1.0000      0.7234      0.2430      0.0756           0
140054          D                  1520.0000      0.0000     45.6000    129.6303      1.0000      0.3008      0.0000      1.0000      0.7234      0.2430      0.0756           0
119261          C                  1570.0000      0.0000    152.9000    606.4538      1.0000      1.9384      0.0000      1.0000      0.4234      0.2430      0.1159           0
119261          C                  1570.0000      0.0000    152.9000    606.4538      1.0000      1.9384      0.0000      1.0000      0.4234      0.2430      0.1159           0
140122          A                  2030.0000      0.0000     81.2000    794.0012      1.0000      0.6655      0.0000      1.0000      0.8705      1.0000      0.0756           0
140122          A                  2030.0000      0.0000     81.2000    794.0012      1.0000      0.7437      0.0000      1.0000      0.8705      1.0000      0.0756           0
119302          D                  1524.0000      0.0000    152.4000    310.9075      1.0000      0.4287      0.0000      1.0000      0.7234      0.2430      0.0756           0
140122          A                  2030.0000      0.0000     81.2000    794.0012      1.0000      0.6834      0.0000      1.0000      0.8705      1.0000      0.0756           0
119302          D                  1524.0000      0.0000    152.4000    310.9075      1.0000      0.6638      0.0000      1.0000      0.7234      0.2430      0.0756           0
140114          C                  1780.0000      0.0000    212.3000    430.4189      1.0000      0.3075      0.0000      1.0000      0.7234      0.6930      0.0756           0
119266          B                  2510.0000      0.0000    200.8000    698.0949      1.0000      0.2005      0.0000      1.0000      0.8705      1.0000      0.0756           0
119277          B                  2000.0000      0.0000    231.6000    490.3518      1.0000      0.1250      0.0000      1.0000      0.8705      1.0000      0.0756           0
119302          D                  1524.0000      0.0000    152.4000    310.9075      1.0000      0.5505      0.0000      1.0000      0.7234      0.2430      0.0756           0
119204          C                  2000.0000      0.0000    234.0000    625.3223      1.0000      0.1217      0.0000      1.0000      0.8705      0.6930      0.0756           0
55396           D                  1520.0000      0.0000     45.6000    129.6303      1.0000      0.3079      0.0000      1.0000      0.8705      0.6930      0.0756           0
118813          B                  2030.0000      0.0000    236.1000    447.8242      1.0000      0.3048      0.0000      1.0000      0.8705      1.0000      0.0756           0
118908          C                  1830.0000      0.0000    177.6000    489.7735      1.0000      0.3310      0.0000      1.0000      0.7234      0.6930      0.0756           0
118808          B                  2030.0000      0.0000    233.6000    450.5822      1.0000      0.4498      0.0000      1.0000      0.8705      1.0000      0.0756           0
118827          C                  1830.0000      0.0000    203.8000    351.9895      1.0000      0.1200      0.0000      1.0000      0.8705      0.2430      0.0756           0
118827          C                  1830.0000      0.0000    203.8000    351.9895      1.0000      0.1200      0.0000      1.0000      0.8705      0.2430      0.0756           0
118874          B                  2030.0000      0.0000    186.8000    705.4000      1.0000      0.8696      0.0000      1.0000      0.7234      1.0000      0.0756           0
118857          B                  1270.0000      0.0000    179.7000    429.9376      1.0000      0.3079      0.0000      1.0000      0.8705      0.2430      0.0756           0
118857          B                  1270.0000      0.0000    179.7000    429.9376      1.0000      0.3079      0.0000      1.0000      0.8705      0.2430      0.0756           0
118857          B                  1270.0000      0.0000    179.7000    429.9376      1.0000      0.3079      0.0000      1.0000      0.8705      0.2430      0.0756           0
118857          B                  1270.0000      0.0000    179.7000    429.9376      1.0000      0.3079      0.0000      1.0000      0.8705      0.2430      0.0756           0
118857          B                  1270.0000      0.0000    179.7000    429.9376      1.0000      0.3079      0.0000      1.0000      0.8705      0.2430      0.0756           0
118857          B                  1270.0000      0.0000    179.7000    429.9376      1.0000      0.4215      0.0000      1.0000      0.7234      0.2430      0.0756           0
140111          B                  1780.0000      0.0000    217.6000    500.3376      1.0000      0.1579      0.0000      1.0000      0.8705      0.2430      0.0756           0
140092          B                  1830.0000      0.0000    202.8000    426.0414      1.0000      0.2838      0.0000      1.0000      0.8705      1.0000      0.0756           0
118888          B                  1520.0000      0.0000    142.9000    462.6945      1.0000      1.4090      0.0000      1.0000      0.4234      0.6930      0.1159           0
118836          B                  1830.0000      0.0000    202.8000    426.0414      1.0000      0.4129      0.0000      1.0000      0.8705      1.0000      0.0756           0
118902          B                  1830.0000      0.0000    202.8000    527.5816      1.0000      0.6670      0.0000      1.0000      0.8705      1.0000      0.0756           0
118933          C                  2280.0000      0.0000    208.2000    533.3275      1.0000      0.8291      0.0000      1.0000      0.7234      0.6930      0.0756           0
118829          B                  1830.0000      0.0000    200.3000    527.5816      1.0000      0.8726      0.0000      1.0000      0.7234      1.0000      0.0756           0
118903          B                  1830.0000      0.0000    202.8000    527.5816      1.0000      0.8607      0.0000      1.0000      0.7234      1.0000      0.0756           0
118903          B                  1830.0000      0.0000    202.8000    527.5816      1.0000      0.8607      0.0000      1.0000      0.7234      1.0000      0.0756           0
118903          B                  1830.0000      0.0000    202.8000    527.5816      1.0000      0.8715      0.0000      1.0000      0.7234      1.0000      0.0756           0
118887          B                  1520.0000      0.0000    142.9000    462.6945      1.0000      0.9827      0.0000      1.0000      0.4234      0.6930      0.1159           0
118811          A                  2030.0000      0.0000    164.7000    823.4669      1.0000      1.5497      0.0000      1.0000      0.7234      1.0000      0.0756           0
118934          D                  1850.0000      0.0000    171.7000    460.9598      1.0000      0.3441      0.0000      1.0000      0.7234      0.2430      0.0756           0
118828          B                  1830.0000      0.0000    200.3000    517.6948      1.0000      0.3008      0.0000      1.0000      0.8705      1.0000      0.0756           0
118937          C                  1780.0000      0.0000    184.7000    462.1052      1.0000      0.3079      0.0000      1.0000      0.8705      0.6930      0.0756           0
118866          C                  1520.0000      0.0000    175.2000    410.3171      1.0000      0.7425      0.0000      1.0000      0.7234      0.6930      0.0756           0
118937          C                  1780.0000      0.0000    184.7000    462.1052      1.0000      0.6116      0.0000      1.0000      0.7234      0.6930      0.0756           0
118937          C                  1780.0000      0.0000    184.7000    462.1052      1.0000      0.6116      0.0000      1.0000      0.7234      0.6930      0.0756           0
55396           D                  1520.0000      0.0000     45.6000    129.6303      1.0000      0.1998      0.0000      1.0000      0.7234      0.6930      0.0756           0
118935          B                  3810.0000      0.0000    297.9000   1206.7350      1.0000      0.1433      0.0000      1.0000      0.8705      1.0000      0.0756           0
118935          B                  3810.0000      0.0000    297.9000   1206.7350      1.0000      0.1750      0.0000      1.0000      0.8705      1.0000      0.0756           0
118935          B                  3810.0000      0.0000    297.9000   1206.7350      1.0000      0.1642      0.0000      1.0000      0.8705      1.0000      0.0756           0
118931          B                  2720.0000      0.0000    267.8000    747.4390      1.0000      0.2254      0.0000      1.0000      0.8705      1.0000      0.0756           0
118892          C                  1900.0000      0.0000    235.5000    465.1826      1.0000      0.1687      0.0000      1.0000      0.8705      0.2430      0.0756           0
118837          C                  1780.0000      0.0000    212.3000    430.4189      1.0000      0.1935      0.0000      1.0000      0.8705      0.6930      0.0756           0
119295          A                  2030.0000      0.0000    263.9000    674.4196      1.0000      0.1613      0.0000      1.0000      0.8705      1.0000      0.0756           0
118914          B                  1830.0000      0.0000    196.7000    593.3870      1.0000      0.4344      0.0000      1.0000      0.8705      1.0000      0.0756           0
119192          D                  2000.0000      0.0000    316.0000    439.0491      1.0000      0.1164      0.0000      1.0000      0.8705      0.9500      0.0756           0
118938          A                  1830.0000      0.0000     98.5000    811.7781      1.0000      0.8438      0.0000      1.0000      0.8705      1.0000      0.0756           0
119247          A                  2000.0000      0.0000    187.6000    624.0846      1.0000      0.1729      0.0000      1.0000      0.8705      1.0000      0.0756           0
119247          A                  2000.0000      0.0000    187.6000    624.0846      1.0000      0.1120      0.0000      1.0000      0.8705      1.0000      0.0756           0
119247          A                  2000.0000      0.0000    187.6000    624.0846      1.0000      0.2354      0.0000      1.0000      0.8705      1.0000      0.0756           0
119226          C                  2000.0000      0.0000    236.4000    509.0930      1.0000      0.1620      0.0000      1.0000      0.8705      0.9500      0.0756           0
119204          C                  2000.0000      0.0000    234.0000    625.3223      1.0000      0.2506      0.0000      1.0000      0.8705      0.9500      0.0756           0
119247          A                  2000.0000      0.0000    187.6000    624.0846      1.0000      0.1422      0.0000      1.0000      0.8705      1.0000      0.0756           0
119226          C                  2000.0000      0.0000    236.4000    509.0930      1.0000      0.2026      0.0000      1.0000      0.8705      0.9500      0.0756           0
119248          A                  2000.0000      0.0000    187.6000    624.0846      1.0000      0.2789      0.0000      1.0000      0.8705      1.0000      0.0756           0
119220          C                  2000.0000      0.0000    304.9000    719.0756      1.0000      0.5495      0.0000      1.0000      0.7234      0.9500      0.0756           0
119245          A                  2000.0000      0.0000    170.4000    677.3646      1.0000      0.4198      0.0000      1.0000      0.8705      1.0000      0.0756           0
119282          B                  2000.0000      0.0000    219.2000    577.1096      1.0000      0.1818      0.0000      1.0000      0.8705      1.0000      0.0756           0
119277          B                  2000.0000      0.0000    231.6000    490.3518      1.0000      0.4313      0.0000      1.0000      0.8705      1.0000      0.0756           0
119194          D                  2000.0000      0.0000    316.0000    439.0491      1.0000      0.3283      0.0000      1.0000      0.7234      0.9500      0.0756           0
119220          C                  2000.0000      0.0000    304.9000    719.0756      1.0000      0.3323      0.0000      1.0000      0.7234      0.6930      0.0756           0
119190          C                  2510.0000      0.0000    205.6000    971.1028      1.0000      0.5426      0.0000      1.0000      0.7234      0.6930      0.0756           0
119192          D                  2000.0000      0.0000    316.0000    439.0491      1.0000      0.1822      0.0000      1.0000      0.8705      0.9500      0.0756           0
119266          B                  2510.0000      0.0000    200.8000    698.0949      1.0000      0.5805      0.0000      1.0000      0.8705      1.0000      0.0756           0
119192          D                  2000.0000      0.0000    316.0000    439.0491      1.0000      0.4864      0.0000      1.0000      0.7234      0.9500      0.0756           0
119290          B                  2000.0000      0.0000    232.8000    435.2683      1.0000      0.2325      0.0000      1.0000      0.8705      1.0000      0.0756           0
119192          D                  2000.0000      0.0000    316.0000    439.0491      1.0000      0.1069      0.0000      1.0000      0.8705      0.9500      0.0756           0
119266          B                  2510.0000      0.0000    200.8000    698.0949      1.0000      0.3437      0.0000      1.0000      0.8705      1.0000      0.0756           0
119252          C                  2000.0000      0.0000    323.0000    566.3298      1.0000      0.1616      0.0000      1.0000      0.8705      0.9500      0.0756           0
119266          B                  2510.0000      0.0000    200.8000    698.0949      1.0000      0.3067      0.0000      1.0000      0.8705      1.0000      0.0756           0
119252          C                  2000.0000      0.0000    323.0000    566.3298      1.0000      0.1855      0.0000      1.0000      0.8705      0.9500      0.0756           0
119260          C                  1570.0000      0.0000    152.9000    606.4538      1.0000      0.8005      0.0000      1.0000      0.7234      0.6930      0.0756           0
119246          A                  2000.0000      0.0000    170.4000    677.3646      1.0000      0.3033      0.0000      1.0000      0.8705      1.0000      0.0756           0
119261          C                  1570.0000      0.0000    152.9000    606.4538      1.0000      1.6078      0.0000      1.0000      0.4234      0.6930      0.1159           0
119290          B                  2000.0000      0.0000    232.8000    435.2683      1.0000      0.7347      0.0000      1.0000      0.7234      1.0000      0.0756           0
119211          B                  2000.0000      0.0000    237.4000    409.1232      1.0000      0.1693      0.0000      1.0000      0.8705      1.0000      0.0756           0
119278          B                  2000.0000      0.0000    231.6000    490.3518      1.0000      0.4507      0.0000      1.0000      0.8705      1.0000      0.0756           0
119248          A                  2000.0000      0.0000    187.6000    624.0846      1.0000      0.2194      0.0000      1.0000      0.8705      1.0000      0.0756           0
119248          A                  2000.0000      0.0000    187.6000    624.0846      1.0000      0.3165      0.0000      1.0000      0.8705      1.0000      0.0756           0
119258          B                  2000.0000      0.0000    180.6000    564.9366      1.0000      0.4721      0.0000      1.0000      0.8705      1.0000      0.0756           0
119258          B                  2000.0000      0.0000    180.6000    564.9366      1.0000      0.2260      0.0000      1.0000      0.8705      1.0000      0.0756           0
119248          A                  2000.0000      0.0000    187.6000    624.0846      1.0000      0.2703      0.0000      1.0000      0.8705      1.0000      0.0756           0
119211          B                  2000.0000      0.0000    237.4000    409.1232      1.0000      0.5011      0.0000      1.0000      0.8705      1.0000      0.0756           0
119267          B                  2510.0000      0.0000    200.8000    698.0949      1.0000      0.4812      0.0000      1.0000      0.8705      1.0000      0.0756           0
119266          B                  2510.0000      0.0000    200.8000    698.0949      1.0000      0.2270      0.0000      1.0000      0.8705      1.0000      0.0756           0
119204          C                  2000.0000      0.0000    234.0000    625.3223      1.0000      0.1503      0.0000      1.0000      0.8705      0.6930      0.0756           0
118857          B                  1270.0000      0.0000    179.7000    429.9376      1.0000      0.5999      0.0000      1.0000      0.7234      0.2430      0.0756           0
118857          B                  1270.0000      0.0000    179.7000    429.9376      1.0000      0.3673      0.0000      1.0000      0.7234      0.2430      0.0756           0
118855          C                  1830.0000      0.0000    207.3000    468.5830      1.0000      0.1906      0.0000      1.0000      0.8705      0.2430      0.0756           0
118836          B                  1830.0000      0.0000    202.8000    426.0414      1.0000      0.3104      0.0000      1.0000      0.8705      1.0000      0.0756           0
118857          B                  1270.0000      0.0000    179.7000    429.9376      1.0000      0.5066      0.0000      1.0000      0.7234      0.2430      0.0756           0
118856          B                  1830.0000      0.0000    187.4000    480.5202      1.0000      0.1716      0.0000      1.0000      0.8705      0.2430      0.0756           0
118908          C                  1830.0000      0.0000    177.6000    489.7735      1.0000      0.2900      0.0000      1.0000      0.8705      0.6930      0.0756           0
118857          B                  1270.0000      0.0000    179.7000    429.9376      1.0000      0.5348      0.0000      1.0000      0.7234      0.2430      0.0756           0
118857          B                  1270.0000      0.0000    179.7000    429.9376      1.0000      0.5348      0.0000      1.0000      0.7234      0.2430      0.0756           0
118857          B                  1270.0000      0.0000    179.7000    429.9376      1.0000      0.5348      0.0000      1.0000      0.7234      0.2430      0.0756           0
118857          B                  1270.0000      0.0000    179.7000    429.9376      1.0000      0.5348      0.0000      1.0000      0.7234      0.2430      0.0756           0
118837          C                  1780.0000      0.0000    212.3000    430.4189      1.0000      0.2592      0.0000      1.0000      0.8705      0.6930      0.0756           0
118832          A                  2030.0000      0.0000    263.9000    674.4196      1.0000      0.2882      0.0000      1.0000      0.8705      1.0000      0.0756           0
118832          A                  2030.0000      0.0000    263.9000    674.4196      1.0000      0.2882      0.0000      1.0000      0.8705      1.0000      0.0756           0
118832          A                  2030.0000      0.0000    263.9000    674.4196      1.0000      0.1840      0.0000      1.0000      0.8705      1.0000      0.0756           0
118850          A                  1520.0000      0.0000    136.8000    595.5487      1.0000      0.7004      0.0000      1.0000      0.8705      1.0000      0.0756           0
118851          A                  1520.0000      0.0000    136.8000    595.5487      1.0000      0.8298      0.0000      1.0000      0.8705      1.0000      0.0756           0
118935          B                  3810.0000      0.0000    297.9000   1206.7350      1.0000      0.3296      0.0000      1.0000      0.8705      1.0000      0.0756           0
118853          C                  2160.0000      0.0000    218.7000    621.7161      1.0000      0.3379      0.0000      1.0000      0.7234      0.2430      0.0756           0
118821          B                  1830.0000      0.0000    143.1000    484.7811      1.0000      0.3173      0.0000      1.0000      0.8705      1.0000      0.0756           0
118869          A                  2280.0000      0.0000    146.4000    814.8940      1.0000      0.4444      0.0000      1.0000      0.8705      1.0000      0.0756           0
118938          A                  1830.0000      0.0000     98.5000    811.7781      1.0000      0.4819      0.0000      1.0000      0.8705      1.0000      0.0756           0
119274          B                  2000.0000      0.0000    320.0000    822.2295      1.0000      0.1541      0.0000      1.0000      0.8705      1.0000      0.0756           0
119274          B                  2000.0000      0.0000    320.0000    822.2295      1.0000      0.1541      0.0000      1.0000      0.8705      1.0000      0.0756           0
119274          B                  2000.0000      0.0000    320.0000    822.2295      1.0000      0.1541      0.0000      1.0000      0.8705      1.0000      0.0756           0
119218          C                  2000.0000      0.0000    304.9000    719.0756      1.0000      0.0863      0.0000      1.0000      0.8705      0.6930      0.0756           0
118909          C                  1830.0000      0.0000    177.6000    489.7735      1.0000      0.1697      0.0000      1.0000      0.8705      0.6930      0.0756           0
55396           D                  1520.0000      0.0000     45.6000    129.6303      1.0000      0.1745      0.0000      1.0000      0.8705      0.6930      0.0756           0
118829          B                  1830.0000      0.0000    200.3000    527.5816      1.0000      0.7844      0.0000      1.0000      0.7234      1.0000      0.0756           0
119204          C                  2000.0000      0.0000    234.0000    625.3223      1.0000      0.1294      0.0000      1.0000      0.8705      0.9500      0.0756           0
119229          C                  2000.0000      0.0000    247.2000    509.0930      1.0000      0.1977      0.0000      1.0000      0.8705      0.9500      0.0756           0
119204          C                  2000.0000      0.0000    234.0000    625.3223      1.0000      0.0761      0.0000      1.0000      0.8705      0.9500      0.0756           0
119281          B                  2000.0000      0.0000    146.3000    672.4278      1.0000      0.8265      0.0000      1.0000      0.7234      1.0000      0.0756           0
119282          B                  2000.0000      0.0000    219.2000    577.1096      1.0000      0.1218      0.0000      1.0000      0.8705      1.0000      0.0756           0
119191          C                  2510.0000      0.0000    205.6000    971.1028      1.0000      0.6420      0.0000      1.0000      0.7234      0.6930      0.0756           0
119194          D                  2000.0000      0.0000    316.0000    439.0491      1.0000      0.2931      0.0000      1.0000      0.7234      0.9500      0.0756           0
119281          B                  2000.0000      0.0000    146.3000    672.4278      1.0000      0.2043      0.0000      1.0000      0.8705      1.0000      0.0756           0
119282          B                  2000.0000      0.0000    219.2000    577.1096      1.0000      0.1684      0.0000      1.0000      0.8705      1.0000      0.0756           0
119252          C                  2000.0000      0.0000    323.0000    566.3298      1.0000      0.3595      0.0000      1.0000      0.7234      0.2430      0.0756           0
119204          C                  2000.0000      0.0000    234.0000    625.3223      1.0000      0.0742      0.0000      1.0000      0.8705      0.9500      0.0756           0
119194          D                  2000.0000      0.0000    316.0000    439.0491      1.0000      0.7993      0.0000      1.0000      0.4234      0.9500      0.1159           0
119290          B                  2000.0000      0.0000    232.8000    435.2683      1.0000      0.8581      0.0000      1.0000      0.7234      1.0000      0.0756           0
119194          D                  2000.0000      0.0000    316.0000    439.0491      1.0000      0.3619      0.0000      1.0000      0.7234      0.9500      0.0756           0
119258          B                  2000.0000      0.0000    180.6000    564.9366      1.0000      0.5105      0.0000      1.0000      0.8705      1.0000      0.0756           0
119247          A                  2000.0000      0.0000    187.6000    624.0846      1.0000      0.2044      0.0000      1.0000      0.8705      1.0000      0.0756           0
119252          C                  2000.0000      0.0000    323.0000    566.3298      1.0000      0.8032      0.0000      1.0000      0.4234      0.2430      0.1159           0
119258          B                  2000.0000      0.0000    180.6000    564.9366      1.0000      0.3759      0.0000      1.0000      0.8705      1.0000      0.0756           0
119257          B                  2000.0000      0.0000    180.6000    564.9366      1.0000      0.3079      0.0000      1.0000      0.8705      1.0000      0.0756           0
119257          B                  2000.0000      0.0000    180.6000    564.9366      1.0000      0.2855      0.0000      1.0000      0.8705      1.0000      0.0756           0
119204          C                  2000.0000      0.0000    234.0000    625.3223      1.0000      0.1840      0.0000      1.0000      0.8705      0.6930      0.0756           0
119247          A                  2000.0000      0.0000    187.6000    624.0846      1.0000      0.1831      0.0000      1.0000      0.8705      1.0000      0.0756           0
119247          A                  2000.0000      0.0000    187.6000    624.0846      1.0000      0.2830      0.0000      1.0000      0.8705      1.0000      0.0756           0
119247          A                  2000.0000      0.0000    187.6000    624.0846      1.0000      0.1648      0.0000      1.0000      0.8705      1.0000      0.0756           0
119247          A                  2000.0000      0.0000    187.6000    624.0846      1.0000      0.1423      0.0000      1.0000      0.8705      1.0000      0.0756           0
119226          C                  2000.0000      0.0000    236.4000    509.0930      1.0000      0.1642      0.0000      1.0000      0.8705      0.6930      0.0756           0
119192          D                  2000.0000      0.0000    316.0000    439.0491      1.0000      0.1200      0.0000      1.0000      0.8705      0.2430      0.0756           0
119211          B                  2000.0000      0.0000    237.4000    409.1232      1.0000      0.3295      0.0000      1.0000      0.8705      1.0000      0.0756           0
119247          A                  2000.0000      0.0000    187.6000    624.0846      1.0000      0.0880      0.0000      1.0000      0.8705      1.0000      0.0756           0
119247          A                  2000.0000      0.0000    187.6000    624.0846      1.0000      0.1737      0.0000      1.0000      0.8705      1.0000      0.0756           0
119247          A                  2000.0000      0.0000    187.6000    624.0846      1.0000      0.1737      0.0000      1.0000      0.8705      1.0000      0.0756           0
119247          A                  2000.0000      0.0000    187.6000    624.0846      1.0000      0.1737      0.0000      1.0000      0.8705      1.0000      0.0756           0
119247          A                  2000.0000      0.0000    187.6000    624.0846      1.0000      0.1582      0.0000      1.0000      0.8705      1.0000      0.0756           0
119204          C                  2000.0000      0.0000    234.0000    625.3223      1.0000      0.1221      0.0000      1.0000      0.8705      0.6930      0.0756           0
119192          D                  2000.0000      0.0000    316.0000    439.0491      1.0000      0.1953      0.0000      1.0000      0.8705      0.2430      0.0756           0
119189          B                  2000.0000      0.0000    231.6000    559.2197      1.0000      0.5537      0.0000      1.0000      0.8705      1.0000      0.0756           0
119189          B                  2000.0000      0.0000    231.6000    559.2197      1.0000      0.5537      0.0000      1.0000      0.8705      1.0000      0.0756           0
55396           D                  1520.0000      0.0000     45.6000    129.6303      1.0000      1.2659      0.0000      1.0000      0.8705      1.0000      0.0756           0
119192          D                  2000.0000      0.0000    316.0000    439.0491      1.0000      0.1257      0.0000      1.0000      0.8705      0.2430      0.0756           0
119268          B                  2510.0000      0.0000    200.8000    698.0949      1.0000      0.6415      0.0000      1.0000      0.8705      1.0000      0.0756           0
119268          B                  2510.0000      0.0000    200.8000    698.0949      1.0000      0.8261      0.0000      1.0000      0.7234      1.0000      0.0756           0
119292          B                  2000.0000      0.0000    232.8000    435.2683      1.0000      0.5366      0.0000      1.0000      0.8705      1.0000      0.0756           0
119267          B                  2510.0000      0.0000    200.8000    698.0949      1.0000      0.1294      0.0000      1.0000      0.8705      1.0000      0.0756           0
117921          A                  2030.0000      0.0000    263.9000    674.4196      1.0000      1.3599      0.0000      1.0000      0.7234      1.0000      0.0756           0
119235          C                  2030.0000      0.0000    401.3000   1000.2631      1.0000      0.3529      0.0000      1.0000      0.7234      0.2430      0.0756           0
119258          B                  2000.0000      0.0000    180.6000    564.9366      1.0000      0.5344      0.0000      1.0000      0.8705      1.0000      0.0756           0
55396           D                  1520.0000      0.0000     45.6000    129.6303      1.0000      0.1382      0.0000      1.0000      0.8705      1.0000      0.0756           0
117761          A                  1830.0000      0.0000    104.8000    611.4591      1.0000      0.8561      0.0000      1.0000      0.8705      1.0000      0.0756           0
117810          C                  1830.0000      0.0000    236.7000    399.3111      1.0000      0.3087      0.0000      1.0000      0.7234      0.6930      0.0756           0
117810          C                  1830.0000      0.0000    236.7000    399.3111      1.0000      0.1632      0.0000      1.0000      0.8705      0.6930      0.0756           0
117810          C                  1830.0000      0.0000    236.7000    399.3111      1.0000      0.2599      0.0000      1.0000      0.8705      0.6930      0.0756           0
119261          C                  1570.0000      0.0000    152.9000    606.4538      1.0000      1.9096      0.0000      1.0000      0.4234      0.6930      0.1159           0
119261          C                  1570.0000      0.0000    152.9000    606.4538      1.0000      1.9096      0.0000      1.0000      0.4234      0.6930      0.1159           0
119261          C                  1570.0000      0.0000    152.9000    606.4538      1.0000      1.9096      0.0000      1.0000      0.4234      0.6930      0.1159           0
119251          B                  2000.0000      0.0000    281.2000    631.2523      1.0000      0.5209      0.0000      1.0000      0.7234      0.2430      0.0756           0
119210          B                  2000.0000      0.0000    237.4000    409.1232      1.0000      0.5844      0.0000      1.0000      0.8705      1.0000      0.0756           0
117903          C                  1600.0000      0.0000    130.5000    464.8978      1.0000      0.2476      0.0000      1.0000      0.8705      0.9500      0.0756           0
117883          D                  1620.0000      0.0000    248.2000    383.8966      1.0000      0.2157      0.0000      1.0000      0.8705      0.2430      0.0756           0
117832          C                  1880.0000      0.0000    181.8000    638.9254      1.0000      0.3439      0.0000      1.0000      0.7234      0.6930      0.0756           0
119252          C                  2000.0000      0.0000    323.0000    566.3298      1.0000      0.0718      0.0000      1.0000      0.8705      0.9500      0.0756           0
119267          B                  2510.0000      0.0000    200.8000    698.0949      1.0000      0.0685      0.0000      1.0000      0.8705      1.0000      0.0756           0
119302          D                  1524.0000      0.0000    152.4000    310.9075      1.0000      0.8473      0.0000      1.0000      0.4234      0.2430      0.1159           0
119252          C                  2000.0000      0.0000    323.0000    566.3298      1.0000      0.1416      0.0000      1.0000      0.8705      0.9500      0.0756           0
119252          C                  2000.0000      0.0000    323.0000    566.3298      1.0000      0.2578      0.0000      1.0000      0.8705      0.9500      0.0756           0
119252          C                  2000.0000      0.0000    323.0000    566.3298      1.0000      0.0971      0.0000      1.0000      0.8705      0.9500      0.0756           0
119266          B                  2510.0000      0.0000    200.8000    698.0949      1.0000      0.0987      0.0000      1.0000      0.8705      1.0000      0.0756           0
119252          C                  2000.0000      0.0000    323.0000    566.3298      1.0000      0.1530      0.0000      1.0000      0.8705      0.9500      0.0756           0
119247          A                  2000.0000      0.0000    187.6000    624.0846      1.0000      0.3320      0.0000      1.0000      0.8705      1.0000      0.0756           0
119290          B                  2000.0000      0.0000    232.8000    435.2683      1.0000      0.8636      0.0000      1.0000      0.7234      1.0000      0.0756           0
119281          B                  2000.0000      0.0000    146.3000    672.4278      1.0000      0.6465      0.0000      1.0000      0.8705      1.0000      0.0756           0
119290          B                  2000.0000      0.0000    232.8000    435.2683      1.0000      0.7171      0.0000      1.0000      0.7234      1.0000      0.0756           0
119248          A                  2000.0000      0.0000    187.6000    624.0846      1.0000      0.2423      0.0000      1.0000      0.8705      1.0000      0.0756           0
119283          B                  2000.0000      0.0000    219.2000    577.1096      1.0000      0.3347      0.0000      1.0000      0.8705      1.0000      0.0756           0
119281          B                  2000.0000      0.0000    146.3000    672.4278      1.0000      0.7414      0.0000      1.0000      0.7234      1.0000      0.0756           0
119291          B                  2000.0000      0.0000    232.8000    435.2683      1.0000      0.6225      0.0000      1.0000      0.8705      1.0000      0.0756           0
119261          C                  1570.0000      0.0000    152.9000    606.4538      1.0000      1.1113      0.0000      1.0000      0.4234      0.6930      0.1159           0
119281          B                  2000.0000      0.0000    146.3000    672.4278      1.0000      0.6585      0.0000      1.0000      0.8705      1.0000      0.0756           0
119248          A                  2000.0000      0.0000    187.6000    624.0846      1.0000      0.5724      0.0000      1.0000      0.8705      1.0000      0.0756           0
119243          A                  2000.0000      0.0000    170.4000    677.3646      1.0000      0.7568      0.0000      1.0000      0.8705      1.0000      0.0756           0
117843          C                  1830.0000      0.0000    187.3000    511.4418      1.0000      0.1132      0.0000      1.0000      0.8705      0.6930      0.0756           0
119247          A                  2000.0000      0.0000    187.6000    624.0846      1.0000      0.2406      0.0000      1.0000      0.8705      1.0000      0.0756           0
119247          A                  2000.0000      0.0000    187.6000    624.0846      1.0000      0.3802      0.0000      1.0000      0.8705      1.0000      0.0756           0
119247          A                  2000.0000      0.0000    187.6000    624.0846      1.0000      0.1145      0.0000      1.0000      0.8705      1.0000      0.0756           0
119211          B                  2000.0000      0.0000    237.4000    409.1232      1.0000      0.2074      0.0000      1.0000      0.8705      1.0000      0.0756           0
119278          B                  2000.0000      0.0000    231.6000    490.3518      1.0000      0.5445      0.0000      1.0000      0.8705      1.0000      0.0756           0
117927          B                  1570.0000      0.0000    141.3000    484.6910      1.0000      0.2516      0.0000      1.0000      0.8705      1.0000      0.0756           0
119267          B                  2510.0000      0.0000    200.8000    698.0949      1.0000      0.1481      0.0000      1.0000      0.8705      1.0000      0.0756           0
119266          B                  2510.0000      0.0000    200.8000    698.0949      1.0000      0.1244      0.0000      1.0000      0.8705      1.0000      0.0756           0
119252          C                  2000.0000      0.0000    323.0000    566.3298      1.0000      0.2164      0.0000      1.0000      0.8705      0.2430      0.0756           0
119267          B                  2510.0000      0.0000    200.8000    698.0949      1.0000      0.1325      0.0000      1.0000      0.8705      1.0000      0.0756           0
119267          B                  2510.0000      0.0000    200.8000    698.0949      1.0000      0.0785      0.0000      1.0000      0.8705      1.0000      0.0756           0
119252          C                  2000.0000      0.0000    323.0000    566.3298      1.0000      0.0698      0.0000      1.0000      0.8705      0.2430      0.0756           0
117906          C                  1600.0000      0.0000    130.5000    464.8978      1.0000      0.5061      0.0000      1.0000      0.7234      0.6930      0.0756           0
119267          B                  2510.0000      0.0000    200.8000    698.0949      1.0000      0.1604      0.0000      1.0000      0.8705      1.0000      0.0756           0
119266          B                  2510.0000      0.0000    200.8000    698.0949      1.0000      0.4672      0.0000      1.0000      0.8705      1.0000      0.0756           0
119266          B                  2510.0000      0.0000    200.8000    698.0949      1.0000      0.2087      0.0000      1.0000      0.8705      1.0000      0.0756           0
119266          B                  2510.0000      0.0000    200.8000    698.0949      1.0000      0.2897      0.0000      1.0000      0.8705      1.0000      0.0756           0
119266          B                  2510.0000      0.0000    200.8000    698.0949      1.0000      0.1480      0.0000      1.0000      0.8705      1.0000      0.0756           0
119266          B                  2510.0000      0.0000    200.8000    698.0949      1.0000      0.1083      0.0000      1.0000      0.8705      1.0000      0.0756           0
119266          B                  2510.0000      0.0000    200.8000    698.0949      1.0000      0.2317      0.0000      1.0000      0.8705      1.0000      0.0756           0
117883          D                  1620.0000      0.0000    248.2000    383.8966      1.0000      0.2861      0.0000      1.0000      0.7234      0.9500      0.0756           0
119266          B                  2510.0000      0.0000    200.8000    698.0949      1.0000      0.3049      0.0000      1.0000      0.8705      1.0000      0.0756           0
119266          B                  2510.0000      0.0000    200.8000    698.0949      1.0000      0.1980      0.0000      1.0000      0.8705      1.0000      0.0756           0
119266          B                  2510.0000      0.0000    200.8000    698.0949      1.0000      0.1856      0.0000      1.0000      0.8705      1.0000      0.0756           0
119267          B                  2510.0000      0.0000    200.8000    698.0949      1.0000      0.2205      0.0000      1.0000      0.8705      1.0000      0.0756           0
119266          B                  2510.0000      0.0000    200.8000    698.0949      1.0000      0.3079      0.0000      1.0000      0.8705      1.0000      0.0756           0
117883          D                  1620.0000      0.0000    248.2000    383.8966      1.0000      0.1413      0.0000      1.0000      0.8705      0.9500      0.0756           0
117939          C                  1830.0000      0.0000    319.4000    544.8290      1.0000      0.6350      0.0000      1.0000      0.7234      0.9500      0.0756           0
119267          B                  2510.0000      0.0000    200.8000    698.0949      1.0000      0.1047      0.0000      1.0000      0.8705      1.0000      0.0756           0
119195          D                  2000.0000      0.0000    316.0000    439.0491      1.0000      0.2668      0.0000      1.0000      0.8705      0.9500      0.0756           0
119194          D                  2000.0000      0.0000    316.0000    439.0491      1.0000      0.4355      0.0000      1.0000      0.7234      0.2430      0.0756           0
118928          C                  1520.0000      0.0000    194.7000    467.4453      1.0000      0.1751      0.0000      1.0000      0.8705      0.2430      0.0756           0
119192          D                  2000.0000      0.0000    316.0000    439.0491      1.0000      0.1215      0.0000      1.0000      0.8705      0.9500      0.0756           0
119266          B                  2510.0000      0.0000    200.8000    698.0949      1.0000      0.3132      0.0000      1.0000      0.8705      1.0000      0.0756           0
117891          D                  1620.0000      0.0000    223.0000    382.3695      1.0000      0.4326      0.0000      1.0000      0.7234      0.9500      0.0756           0
117939          C                  1830.0000      0.0000    319.4000    544.8290      1.0000      0.5841      0.0000      1.0000      0.7234      0.9500      0.0756           0
118914          B                  1830.0000      0.0000    196.7000    593.3870      1.0000      0.2392      0.0000      1.0000      0.8705      1.0000      0.0756           0
118928          C                  1520.0000      0.0000    194.7000    467.4453      1.0000      0.1181      0.0000      1.0000      0.8705      0.9500      0.0756           0
118896          D                  1880.0000      0.0000    279.6000    452.9977      1.0000      0.1083      0.0000      1.0000      0.8705      0.9500      0.0756           0
118914          B                  1830.0000      0.0000    196.7000    593.3870      1.0000      0.1867      0.0000      1.0000      0.8705      1.0000      0.0756           0
119266          B                  2510.0000      0.0000    200.8000    698.0949      1.0000      0.2213      0.0000      1.0000      0.8705      1.0000      0.0756           0
119192          D                  2000.0000      0.0000    316.0000    439.0491      1.0000      0.0828      0.0000      1.0000      0.8705      0.9500      0.0756           0
119267          B                  2510.0000      0.0000    200.8000    698.0949      1.0000      0.1227      0.0000      1.0000      0.8705      1.0000      0.0756           0
119266          B                  2510.0000      0.0000    200.8000    698.0949      1.0000      0.0692      0.0000      1.0000      0.8705      1.0000      0.0756           0
119252          C                  2000.0000      0.0000    323.0000    566.3298      1.0000      0.2273      0.0000      1.0000      0.8705      0.9500      0.0756           0
119197          D                  2000.0000      0.0000    298.2000    539.5879      1.0000      0.3409      0.0000      1.0000      0.7234      0.2430      0.0756           0
119267          B                  2510.0000      0.0000    200.8000    698.0949      1.0000      0.1496      0.0000      1.0000      0.8705      1.0000      0.0756           0
119266          B                  2510.0000      0.0000    200.8000    698.0949      1.0000      0.3335      0.0000      1.0000      0.8705      1.0000      0.0756           0
119269          B                  2510.0000      0.0000    210.0000    671.4149      1.0000      0.3593      0.0000      1.0000      0.8705      1.0000      0.0756           0
119192          D                  2000.0000      0.0000    316.0000    439.0491      1.0000      0.4023      0.0000      1.0000      0.7234      0.2430      0.0756           0
119266          B                  2510.0000      0.0000    200.8000    698.0949      1.0000      0.2613      0.0000      1.0000      0.8705      1.0000      0.0756           0
119192          D                  2000.0000      0.0000    316.0000    439.0491      1.0000      0.9241      0.0000      1.0000      0.4234      0.2430      0.1159           0
119251          B                  2000.0000      0.0000    281.2000    631.2523      1.0000      0.4491      0.0000      1.0000      0.7234      0.2430      0.0756           0
119192          D                  2000.0000      0.0000    316.0000    439.0491      1.0000      0.3042      0.0000      1.0000      0.7234      0.2430      0.0756           0
119194          D                  2000.0000      0.0000    316.0000    439.0491      1.0000      0.3581      0.0000      1.0000      0.7234      0.2430      0.0756           0
119267          B                  2510.0000      0.0000    200.8000    698.0949      1.0000      0.1011      0.0000      1.0000      0.8705      1.0000      0.0756           0
119266          B                  2510.0000      0.0000    200.8000    698.0949      1.0000      0.3079      0.0000      1.0000      0.8705      1.0000      0.0756           0
119192          D                  2000.0000      0.0000    316.0000    439.0491      1.0000      0.1170      0.0000      1.0000      0.8705      0.9500      0.0756           0
119266          B                  2510.0000      0.0000    200.8000    698.0949      1.0000      0.3079      0.0000      1.0000      0.8705      1.0000      0.0756           0
119266          B                  2510.0000      0.0000    200.8000    698.0949      1.0000      0.3186      0.0000      1.0000      0.8705      1.0000      0.0756           0
119266          B                  2510.0000      0.0000    200.8000    698.0949      1.0000      0.1083      0.0000      1.0000      0.8705      1.0000      0.0756           0
119266          B                  2510.0000      0.0000    200.8000    698.0949      1.0000      0.4674      0.0000      1.0000      0.8705      1.0000      0.0756           0
119266          B                  2510.0000      0.0000    200.8000    698.0949      1.0000      0.3079      0.0000      1.0000      0.8705      1.0000      0.0756           0
119266          B                  2510.0000      0.0000    200.8000    698.0949      1.0000      0.1600      0.0000      1.0000      0.8705      1.0000      0.0756           0
119267          B                  2510.0000      0.0000    200.8000    698.0949      1.0000      0.6538      0.0000      1.0000      0.8705      1.0000      0.0756           0
119266          B                  2510.0000      0.0000    200.8000    698.0949      1.0000      0.3079      0.0000      1.0000      0.8705      1.0000      0.0756           0
119266          B                  2510.0000      0.0000    200.8000    698.0949      1.0000      0.1789      0.0000      1.0000      0.8705      1.0000      0.0756           0
119266          B                  2510.0000      0.0000    200.8000    698.0949      1.0000      0.2109      0.0000      1.0000      0.8705      1.0000      0.0756           0
119295          A                  2030.0000      0.0000    263.9000    674.4196      1.0000      0.1231      0.0000      1.0000      0.8705      1.0000      0.0756           0
119266          B                  2510.0000      0.0000    200.8000    698.0949      1.0000      0.5826      0.0000      1.0000      0.8705      1.0000      0.0756           0
118914          B                  1830.0000      0.0000    196.7000    593.3870      1.0000      0.2540      0.0000      1.0000      0.8705      1.0000      0.0756           0
118914          B                  1830.0000      0.0000    196.7000    593.3870      1.0000      0.2502      0.0000      1.0000      0.8705      1.0000      0.0756           0
118914          B                  1830.0000      0.0000    196.7000    593.3870      1.0000      0.1832      0.0000      1.0000      0.8705      1.0000      0.0756           0
119269          B                  2510.0000      0.0000    210.0000    671.4149      1.0000      0.7514      0.0000      1.0000      0.7234      1.0000      0.0756           0
119267          B                  2510.0000      0.0000    200.8000    698.0949      1.0000      0.2167      0.0000      1.0000      0.8705      1.0000      0.0756           0
119290          B                  2000.0000      0.0000    232.8000    435.2683      1.0000      0.2351      0.0000      1.0000      0.8705      1.0000      0.0756           0
119266          B                  2510.0000      0.0000    200.8000    698.0949      1.0000      0.3079      0.0000      1.0000      0.8705      1.0000      0.0756           0
119266          B                  2510.0000      0.0000    200.8000    698.0949      1.0000      0.1749      0.0000      1.0000      0.8705      1.0000      0.0756           0
119266          B                  2510.0000      0.0000    200.8000    698.0949      1.0000      0.3424      0.0000      1.0000      0.8705      1.0000      0.0756           0
119247          A                  2000.0000      0.0000    187.6000    624.0846      1.0000      0.0745      0.0000      1.0000      0.8705      1.0000      0.0756           0
119248          A                  2000.0000      0.0000    187.6000    624.0846      1.0000      0.0862      0.0000      1.0000      0.8705      1.0000      0.0756           0
119192          D                  2000.0000      0.0000    316.0000    439.0491      1.0000      0.1102      0.0000      1.0000      0.8705      0.9500      0.0756           0
119266          B                  2510.0000      0.0000    200.8000    698.0949      1.0000      0.1496      0.0000      1.0000      0.8705      1.0000      0.0756           0
119192          D                  2000.0000      0.0000    316.0000    439.0491      1.0000      0.2955      0.0000      1.0000      0.7234      0.2430      0.0756           0
117921          A                  2030.0000      0.0000    263.9000    674.4196      1.0000      0.2084      0.0000      1.0000      0.8705      1.0000      0.0756           0
117948          A                  1780.0000      0.0000    131.0000    752.2992      1.0000      0.0650      0.0000      1.0000      0.8705      1.0000      0.0756           0
119267          B                  2510.0000      0.0000    200.8000    698.0949      1.0000      0.1410      0.0000      1.0000      0.8705      1.0000      0.0756           0
119266          B                  2510.0000      0.0000    200.8000    698.0949      1.0000      0.1034      0.0000      1.0000      0.8705      1.0000      0.0756           0
119267          B                  2510.0000      0.0000    200.8000    698.0949      1.0000      0.2722      0.0000      1.0000      0.8705      1.0000      0.0756           0
119192          D                  2000.0000      0.0000    316.0000    439.0491      1.0000      0.2547      0.0000      1.0000      0.8705      0.2430      0.0756           0
119189          B                  2000.0000      0.0000    231.6000    559.2197      1.0000      0.4808      0.0000      1.0000      0.8705      1.0000      0.0756           0
119190          C                  2510.0000      0.0000    205.6000    971.1028      1.0000      0.4374      0.0000      1.0000      0.7234      0.6930      0.0756           0
117810          C                  1830.0000      0.0000    236.7000    399.3111      1.0000      0.3040      0.0000      1.0000      0.8705      0.9500      0.0756           0
117878          D                  1830.0000      0.0000    192.8000    529.5037      1.0000      0.1658      0.0000      1.0000      0.8705      0.2430      0.0756           0
118914          B                  1830.0000      0.0000    196.7000    593.3870      1.0000      0.3284      0.0000      1.0000      0.8705      1.0000      0.0756           0
119267          B                  2510.0000      0.0000    200.8000    698.0949      1.0000      0.2292      0.0000      1.0000      0.8705      1.0000      0.0756           0
119267          B                  2510.0000      0.0000    200.8000    698.0949      1.0000      0.1783      0.0000      1.0000      0.8705      1.0000      0.0756           0
119266          B                  2510.0000      0.0000    200.8000    698.0949      1.0000      0.3480      0.0000      1.0000      0.8705      1.0000      0.0756           0
119266          B                  2510.0000      0.0000    200.8000    698.0949      1.0000      0.1945      0.0000      1.0000      0.8705      1.0000      0.0756           0
118821          B                  1830.0000      0.0000    143.1000    484.7811      1.0000      0.0923      0.0000      1.0000      0.8705      1.0000      0.0756           0
119192          D                  2000.0000      0.0000    316.0000    439.0491      1.0000      0.1418      0.0000      1.0000      0.8705      0.2430      0.0756           0
118806          C                  1520.0000      0.0000    230.8000    794.3524      1.0000      0.1168      0.0000      1.0000      0.8705      0.2430      0.0756           0
118852          A                  1520.0000      0.0000    136.8000    595.5487      1.0000      1.8732      0.0000      1.0000      0.4234      1.0000      0.1159           0
118852          A                  1520.0000      0.0000    136.8000    595.5487      1.0000      1.8732      0.0000      1.0000      0.4234      1.0000      0.1159           0
55396           D                  1520.0000      0.0000     45.6000    129.6303      1.0000      0.2587      0.0000      1.0000      0.4234      1.0000      0.1159           0
118870          A                  2280.0000      0.0000    146.4000    814.8940      1.0000      0.2926      0.0000      1.0000      0.8705      1.0000      0.0756           0
118870          A                  2280.0000      0.0000    146.4000    814.8940      1.0000      0.2926      0.0000      1.0000      0.8705      1.0000      0.0756           0
118934          D                  1850.0000      0.0000    171.7000    460.9598      1.0000      0.2160      0.0000      1.0000      0.8705      0.2430      0.0756           0
118934          D                  1850.0000      0.0000    171.7000    460.9598      1.0000      0.2160      0.0000      1.0000      0.8705      0.2430      0.0756           0
117948          A                  1780.0000      0.0000    131.0000    752.2992      1.0000      0.0713      0.0000      1.0000      0.8705      1.0000      0.0756           0
118842          C                  2510.0000      0.0000    205.9000    582.2513      1.0000      0.1580      0.0000      1.0000      0.8705      0.6930      0.0756           0
118842          C                  2510.0000      0.0000    205.9000    582.2513      1.0000      0.1475      0.0000      1.0000      0.8705      0.6930      0.0756           0
118842          C                  2510.0000      0.0000    205.9000    582.2513      1.0000      0.1428      0.0000      1.0000      0.8705      0.6930      0.0756           0
118869          A                  2280.0000      0.0000    146.4000    814.8940      1.0000      0.2942      0.0000      1.0000      0.8705      1.0000      0.0756           0
117866          B                  1830.0000      0.0000    130.2000    634.4530      1.0000      0.3435      0.0000      1.0000      0.7234      0.2430      0.0756           0
117891          D                  1620.0000      0.0000    223.0000    382.3695      1.0000      0.4990      0.0000      1.0000      0.7234      0.9500      0.0756           0
117888          B                  1830.0000      0.0000    237.9000    512.8649      1.0000      0.2061      0.0000      1.0000      0.8705      1.0000      0.0756           0
117939          C                  1830.0000      0.0000    319.4000    544.8290      1.0000      0.1926      0.0000      1.0000      0.8705      0.9500      0.0756           0
117888          B                  1830.0000      0.0000    237.9000    512.8649      1.0000      0.2446      0.0000      1.0000      0.8705      1.0000      0.0756           0
117939          C                  1830.0000      0.0000    319.4000    544.8290      1.0000      0.2062      0.0000      1.0000      0.8705      0.6930      0.0756           0
117888          B                  1830.0000      0.0000    237.9000    512.8649      1.0000      0.2257      0.0000      1.0000      0.8705      1.0000      0.0756           0
117888          B                  1830.0000      0.0000    237.9000    512.8649      1.0000      0.1820      0.0000      1.0000      0.8705      1.0000      0.0756           0
117888          B                  1830.0000      0.0000    237.9000    512.8649      1.0000      0.1958      0.0000      1.0000      0.8705      1.0000      0.0756           0
117888          B                  1830.0000      0.0000    237.9000    512.8649      1.0000      0.0738      0.0000      1.0000      0.8705      1.0000      0.0756           0
117878          D                  1830.0000      0.0000    192.8000    529.5037      1.0000      0.7502      0.0000      1.0000      0.4234      0.2430      0.1159           0
117888          B                  1830.0000      0.0000    237.9000    512.8649      1.0000      0.1022      0.0000      1.0000      0.8705      1.0000      0.0756           0
117888          B                  1830.0000      0.0000    237.9000    512.8649      1.0000      0.8596      0.0000      1.0000      0.7234      1.0000      0.0756           0
120341          B                  2000.0000      0.0000    202.9000    641.9886      1.0000      0.3625      0.0000      1.0000      0.8705      1.0000      0.0756           0
120308          B                  1630.0000      0.0000    175.2000    506.5076      1.0000      0.9017      0.0000      1.0000      0.7234      1.0000      0.0756           0
120347          B                  2000.0000      0.0000    140.0000    682.6445      1.0000      0.2998      0.0000      1.0000      0.8705      1.0000      0.0756           0
120316          C                  2000.0000      0.0000    335.6000    478.8041      1.0000      0.1419      0.0000      1.0000      0.8705      0.6930      0.0756           0
120316          C                  2000.0000      0.0000    335.6000    478.8041      1.0000      0.1419      0.0000      1.0000      0.8705      0.6930      0.0756           0
120316          C                  2000.0000      0.0000    335.6000    478.8041      1.0000      0.2263      0.0000      1.0000      0.8705      0.6930      0.0756           0
120347          B                  2000.0000      0.0000    140.0000    682.6445      1.0000      0.2998      0.0000      1.0000      0.8705      1.0000      0.0756           0
117939          C                  1830.0000      0.0000    319.4000    544.8290      1.0000      0.1779      0.0000      1.0000      0.8705      0.6930      0.0756           0
117849          B                  1780.0000      0.0000    200.8000    418.8117      1.0000      0.3926      0.0000      1.0000      0.8705      1.0000      0.0756           0
117939          C                  1830.0000      0.0000    319.4000    544.8290      1.0000      0.3260      0.0000      1.0000      0.7234      0.6930      0.0756           0
117939          C                  1830.0000      0.0000    319.4000    544.8290      1.0000      0.1560      0.0000      1.0000      0.8705      0.6930      0.0756           0
117883          D                  1620.0000      0.0000    248.2000    383.8966      1.0000      0.2317      0.0000      1.0000      0.8705      0.2430      0.0756           0
117888          B                  1830.0000      0.0000    237.9000    512.8649      1.0000      0.2300      0.0000      1.0000      0.8705      1.0000      0.0756           0
117939          C                  1830.0000      0.0000    319.4000    544.8290      1.0000      0.3328      0.0000      1.0000      0.7234      0.6930      0.0756           0
117921          A                  2030.0000      0.0000    263.9000    674.4196      1.0000      0.1201      0.0000      1.0000      0.8705      1.0000      0.0756           0
120316          C                  2000.0000      0.0000    335.6000    478.8041      1.0000      0.1219      0.0000      1.0000      0.8705      0.9500      0.0756           0
120310          B                  1630.0000      0.0000    175.2000    506.5076      1.0000      1.8824      0.0000      1.0000      0.4234      0.6930      0.1159           0
120316          C                  2000.0000      0.0000    335.6000    478.8041      1.0000      0.1068      0.0000      1.0000      0.8705      0.6930      0.0756           0
120316          C                  2000.0000      0.0000    335.6000    478.8041      1.0000      0.1068      0.0000      1.0000      0.8705      0.6930      0.0756           0
120341          B                  2000.0000      0.0000    202.9000    641.9886      1.0000      0.2756      0.0000      1.0000      0.8705      1.0000      0.0756           0
120341          B                  2000.0000      0.0000    202.9000    641.9886      1.0000      0.8606      0.0000      1.0000      0.7234      1.0000      0.0756           0
120341          B                  2000.0000      0.0000    202.9000    641.9886      1.0000      1.5585      0.0000      1.0000      0.4234      0.6930      0.1159           0
120341          B                  2000.0000      0.0000    202.9000    641.9886      1.0000      0.5190      0.0000      1.0000      0.8705      1.0000      0.0756           0
120320          C                  1830.0000      0.0000    292.8000    473.6716      1.0000      0.8037      0.0000      1.0000      0.4234      0.9500      0.1159           0
120347          B                  2000.0000      0.0000    140.0000    682.6445      1.0000      0.1330      0.0000      1.0000      0.8705      1.0000      0.0756           0
120316          C                  2000.0000      0.0000    335.6000    478.8041      1.0000      0.2263      0.0000      1.0000      0.8705      0.6930      0.0756           0
120331          B                  1650.0000      0.0000    112.6000    557.7723      1.0000      0.2813      0.0000      1.0000      0.8705      0.2430      0.0756           0
120341          B                  2000.0000      0.0000    202.9000    641.9886      1.0000      0.2756      0.0000      1.0000      0.8705      1.0000      0.0756           0
117939          C                  1830.0000      0.0000    319.4000    544.8290      1.0000      0.1216      0.0000      1.0000      0.8705      0.6930      0.0756           0
117888          B                  1830.0000      0.0000    237.9000    512.8649      1.0000      0.1952      0.0000      1.0000      0.8705      1.0000      0.0756           0
117939          C                  1830.0000      0.0000    319.4000    544.8290      1.0000      0.3598      0.0000      1.0000      0.7234      0.6930      0.0756           0
120331          B                  1650.0000      0.0000    112.6000    557.7723      1.0000      0.5457      0.0000      1.0000      0.7234      0.9500      0.0756           0
120316          C                  2000.0000      0.0000    335.6000    478.8041      1.0000      0.2930      0.0000      1.0000      0.7234      0.9500      0.0756           0
120308          B                  1630.0000      0.0000    175.2000    506.5076      1.0000      0.2946      0.0000      1.0000      0.8705      1.0000      0.0756           0
120338          C                  1830.0000      0.0000    294.1000    462.0237      1.0000      0.8071      0.0000      1.0000      0.4234      0.9500      0.1159           0
117883          D                  1620.0000      0.0000    248.2000    383.8966      1.0000      0.3063      0.0000      1.0000      0.7234      0.2430      0.0756           0
117888          B                  1830.0000      0.0000    237.9000    512.8649      1.0000      0.2109      0.0000      1.0000      0.8705      1.0000      0.0756           0
117939          C                  1830.0000      0.0000    319.4000    544.8290      1.0000      0.1464      0.0000      1.0000      0.8705      0.9500      0.0756           0
117939          C                  1830.0000      0.0000    319.4000    544.8290      1.0000      0.1167      0.0000      1.0000      0.8705      0.9500      0.0756           0
117939          C                  1830.0000      0.0000    319.4000    544.8290      1.0000      0.1933      0.0000      1.0000      0.8705      0.9500      0.0756           0
117889          B                  1830.0000      0.0000    237.9000    512.8649      1.0000      0.3637      0.0000      1.0000      0.8705      1.0000      0.0756           0
117924          A                  2030.0000      0.0000    263.9000    674.4196      1.0000      0.3482      0.0000      1.0000      0.8705      1.0000      0.0756           0
117890          D                  1620.0000      0.0000    223.0000    382.3695      1.0000      0.1859      0.0000      1.0000      0.8705      0.9500      0.0756           0
117890          D                  1620.0000      0.0000    223.0000    382.3695      1.0000      0.3628      0.0000      1.0000      0.7234      0.2430      0.0756           0
117924          A                  2030.0000      0.0000    263.9000    674.4196      1.0000      0.5119      0.0000      1.0000      0.8705      1.0000      0.0756           0
117924          A                  2030.0000      0.0000    263.9000    674.4196      1.0000      0.5634      0.0000      1.0000      0.8705      1.0000      0.0756           0
117939          C                  1830.0000      0.0000    319.4000    544.8290      1.0000      0.2096      0.0000      1.0000      0.8705      0.6930      0.0756           0
117924          A                  2030.0000      0.0000    263.9000    674.4196      1.0000      0.7578      0.0000      1.0000      0.8705      1.0000      0.0756           0
117810          C                  1830.0000      0.0000    236.7000    399.3111      1.0000      0.1240      0.0000      1.0000      0.8705      0.9500      0.0756           0
117888          B                  1830.0000      0.0000    237.9000    512.8649      1.0000      0.3722      0.0000      1.0000      0.8705      1.0000      0.0756           0
117891          D                  1620.0000      0.0000    223.0000    382.3695      1.0000      0.3173      0.0000      1.0000      0.7234      0.9500      0.0756           0
117939          C                  1830.0000      0.0000    319.4000    544.8290      1.0000      0.1690      0.0000      1.0000      0.8705      0.9500      0.0756           0
117924          A                  2030.0000      0.0000    263.9000    674.4196      1.0000      0.2126      0.0000      1.0000      0.8705      1.0000      0.0756           0
117939          C                  1830.0000      0.0000    319.4000    544.8290      1.0000      0.3239      0.0000      1.0000      0.7234      0.6930      0.0756           0
117924          A                  2030.0000      0.0000    263.9000    674.4196      1.0000      0.1744      0.0000      1.0000      0.8705      1.0000      0.0756           0
120310          B                  1630.0000      0.0000    175.2000    506.5076      1.0000      2.1073      0.0000      1.0000      0.4234      0.6930      0.1159           0
120336          D                  1520.0000      0.0000     45.6000    129.6303      1.0000      0.3733      0.0000      1.0000      0.7234      0.2430      0.0756           0
120310          B                  1630.0000      0.0000    175.2000    506.5076      1.0000      1.6329      0.0000      1.0000      0.4234      0.6930      0.1159           0
120335          D                  1520.0000      0.0000     45.6000    129.6303      1.0000      0.3258      0.0000      1.0000      0.7234      0.2430      0.0756           0
120310          B                  1630.0000      0.0000    175.2000    506.5076      1.0000      1.9083      0.0000      1.0000      0.4234      0.6930      0.1159           0
120310          B                  1630.0000      0.0000    175.2000    506.5076      1.0000      1.9083      0.0000      1.0000      0.4234      0.6930      0.1159           0
120310          B                  1630.0000      0.0000    175.2000    506.5076      1.0000      1.9083      0.0000      1.0000      0.4234      0.6930      0.1159           0
120310          B                  1630.0000      0.0000    175.2000    506.5076      1.0000      1.9083      0.0000      1.0000      0.4234      0.6930      0.1159           0
120335          D                  1520.0000      0.0000     45.6000    129.6303      1.0000      0.2113      0.0000      1.0000      0.8705      0.2430      0.0756           0
120331          B                  1650.0000      0.0000    112.6000    557.7723      1.0000      0.4031      0.0000      1.0000      0.7234      0.2430      0.0756           0
120308          B                  1630.0000      0.0000    175.2000    506.5076      1.0000      0.4709      0.0000      1.0000      0.8705      1.0000      0.0756           0
120308          B                  1630.0000      0.0000    175.2000    506.5076      1.0000      0.4709      0.0000      1.0000      0.8705      1.0000      0.0756           0
120308          B                  1630.0000      0.0000    175.2000    506.5076      1.0000      0.4709      0.0000      1.0000      0.8705      1.0000      0.0756           0
117883          D                  1620.0000      0.0000    248.2000    383.8966      1.0000      0.1958      0.0000      1.0000      0.8705      0.2430      0.0756           0
120308          B                  1630.0000      0.0000    175.2000    506.5076      1.0000      0.5265      0.0000      1.0000      0.8705      1.0000      0.0756           0
120317          C                  2000.0000      0.0000    335.6000    478.8041      1.0000      0.4631      0.0000      1.0000      0.7234      0.6930      0.0756           0
120317          C                  2000.0000      0.0000    335.6000    478.8041      1.0000      0.4631      0.0000      1.0000      0.7234      0.6930      0.0756           0
55396           D                  1520.0000      0.0000     45.6000    129.6303      1.0000      0.3079      0.0000      1.0000      0.7234      0.6930      0.0756           0
117883          D                  1620.0000      0.0000    248.2000    383.8966      1.0000      0.2421      0.0000      1.0000      0.8705      0.2430      0.0756           0
120326          D                  1930.0000      0.0000    197.8000    441.7058      1.0000      0.1565      0.0000      1.0000      0.8705      0.2430      0.0756           0
120316          C                  2000.0000      0.0000    335.6000    478.8041      1.0000      0.2895      0.0000      1.0000      0.7234      0.6930      0.0756           0
120316          C                  2000.0000      0.0000    335.6000    478.8041      1.0000      0.2895      0.0000      1.0000      0.7234      0.6930      0.0756           0
[...]
119333          B                  1520.0000      0.0000    121.6000    474.2343      1.0000      0.0751      0.0000      1.0000      0.8705      0.9500      0.0756           0
120868          C                  1570.0000      0.0000    208.1000    441.6796      1.0000      0.0945      0.0000      1.0000      0.9500      0.1000      0.0756           1
119314          C                  1520.0000      0.0000    121.6000    480.2729      1.0000      0.1446      0.0000      1.0000      0.8705      0.6930      0.0756           0
120842          A                  1830.0000      0.0000    128.7000    645.3643      1.0000      0.1086      0.0000      1.0000      0.8705      1.0000      0.0756           0
119333          B                  1520.0000      0.0000    121.6000    474.2343      1.0000      0.0800      0.0000      1.0000      0.8705      0.2430      0.0756           0
119328          B                  1520.0000      0.0000    121.6000    575.5403      1.0000      0.1910      0.0000      1.0000      0.9500      0.1000      0.0756           1
119326          D                  1650.0000      0.0000    248.0000    373.5572      1.0000      0.1404      0.0000      1.0000      0.8705      0.2430      0.0756           0
119325          B                  1520.0000      0.0000    122.1000    517.9222      1.0000      0.3031      0.0000      1.0000      0.7234      0.2430      0.0756           0
119312          A                  1520.0000      0.0000     95.1000    674.6880      1.0000      0.3018      0.0000      1.0000      0.8705      1.0000      0.0756           0
119312          A                  1520.0000      0.0000     95.1000    674.6880      1.0000      0.1355      0.0000      1.0000      0.8705      1.0000      0.0756           0
119312          A                  1520.0000      0.0000     95.1000    674.6880      1.0000      0.1637      0.0000      1.0000      0.8705      1.0000      0.0756           0
119333          B                  1520.0000      0.0000    121.6000    474.2343      1.0000      0.3599      0.0000      1.0000      0.7234      0.2430      0.0756           0
120858          B                  1650.0000      0.0000    129.5000    601.9026      1.0000      0.3393      0.0000      1.0000      0.8705      1.0000      0.0756           0
120858          B                  1650.0000      0.0000    129.5000    601.9026      1.0000      0.2271      0.0000      1.0000      0.8705      1.0000      0.0756           0
119306          D                  1780.0000      0.0000    217.6000    488.4371      1.0000      0.1522      0.0000      1.0000      0.8705      0.2430      0.0756           0
119306          D                  1780.0000      0.0000    217.6000    488.4371      1.0000      0.1525      0.0000      1.0000      0.8705      0.2430      0.0756           0
119306          D                  1780.0000      0.0000    217.6000    488.4371      1.0000      0.1615      0.0000      1.0000      0.8705      0.2430      0.0756           0
120862          C                  2160.0000      0.0000    225.3000    795.0068      1.0000      0.1972      0.0000      1.0000      0.8705      0.6930      0.0756           0
119326          D                  1650.0000      0.0000    248.0000    373.5572      1.0000      0.1524      0.0000      1.0000      0.8705      0.2430      0.0756           0
119325          B                  1520.0000      0.0000    122.1000    517.9222      1.0000      0.2903      0.0000      1.0000      0.8705      0.2430      0.0756           0
120858          B                  1650.0000      0.0000    129.5000    601.9026      1.0000      0.3516      0.0000      1.0000      0.8705      1.0000      0.0756           0
119318          C                  1520.0000      0.0000    107.4000    558.1687      1.0000      0.4892      0.0000      1.0000      0.9500      0.1000      0.0756           1
120843          A                  1830.0000      0.0000    128.7000    645.3643      1.0000      0.2995      0.0000      1.0000      0.9500      0.1000      0.0756           1
120861          B                  1650.0000      0.0000    117.2000    603.6488      1.0000      0.2873      0.0000      1.0000      0.8705      1.0000      0.0756           0
120861          B                  1650.0000      0.0000    117.2000    603.6488      1.0000      0.4410      0.0000      1.0000      0.8705      1.0000      0.0756           0
120857          A                  1830.0000      0.0000    125.6000    780.7548      1.0000      0.5313      0.0000      1.0000      0.8705      1.0000      0.0756           0
119314          C                  1520.0000      0.0000    121.6000    480.2729      1.0000      0.1455      0.0000      1.0000      0.9500      0.1000      0.0756           1
119314          C                  1520.0000      0.0000    121.6000    480.2729      1.0000      0.1343      0.0000      1.0000      0.9500      0.1000      0.0756           1
120842          A                  1830.0000      0.0000    128.7000    645.3643      1.0000      0.4374      0.0000      1.0000      0.8705      1.0000      0.0756           0
119314          C                  1520.0000      0.0000    121.6000    480.2729      1.0000      0.1746      0.0000      1.0000      0.9500      0.1000      0.0756           1
120842          A                  1830.0000      0.0000    128.7000    645.3643      1.0000      0.2319      0.0000      1.0000      0.8705      1.0000      0.0756           0
119314          C                  1520.0000      0.0000    121.6000    480.2729      1.0000      0.1942      0.0000      1.0000      0.9500      0.1000      0.0756           1
120842          A                  1830.0000      0.0000    128.7000    645.3643      1.0000      0.1175      0.0000      1.0000      0.8705      1.0000      0.0756           0
120860          B                  1650.0000      0.0000    117.2000    603.6488      1.0000      0.1354      0.0000      1.0000      0.8705      1.0000      0.0756           0
119325          B                  1520.0000      0.0000    122.1000    517.9222      1.0000      0.1997      0.0000      1.0000      0.8705      0.2430      0.0756           0
119325          B                  1520.0000      0.0000    122.1000    517.9222      1.0000      0.1802      0.0000      1.0000      0.8705      0.2430      0.0756           0
119314          C                  1520.0000      0.0000    121.6000    480.2729      1.0000      0.1846      0.0000      1.0000      0.9500      0.1000      0.0756           1
119325          B                  1520.0000      0.0000    122.1000    517.9222      1.0000      0.0905      0.0000      1.0000      0.8705      0.9500      0.0756           0
119325          B                  1520.0000      0.0000    122.1000    517.9222      1.0000      0.0929      0.0000      1.0000      0.8705      0.2430      0.0756           0
119314          C                  1520.0000      0.0000    121.6000    480.2729      1.0000      0.1526      0.0000      1.0000      0.8705      0.6930      0.0756           0
119325          B                  1520.0000      0.0000    122.1000    517.9222      1.0000      0.1028      0.0000      1.0000      0.8705      0.2430      0.0756           0
119314          C                  1520.0000      0.0000    121.6000    480.2729      1.0000      0.1869      0.0000      1.0000      0.9500      0.1000      0.0756           1
119314          C                  1520.0000      0.0000    121.6000    480.2729      1.0000      0.3302      0.0000      1.0000      0.9500      0.1000      0.0756           1
119314          C                  1520.0000      0.0000    121.6000    480.2729      1.0000      0.2937      0.0000      1.0000      0.9500      0.1000      0.0756           1
119314          C                  1520.0000      0.0000    121.6000    480.2729      1.0000      0.3259      0.0000      1.0000      0.9500      0.1000      0.0756           1
119325          B                  1520.0000      0.0000    122.1000    517.9222      1.0000      0.2732      0.0000      1.0000      0.8705      0.2430      0.0756           0
119314          C                  1520.0000      0.0000    121.6000    480.2729      1.0000      0.2840      0.0000      1.0000      0.9500      0.1000      0.0756           1
120862          C                  2160.0000      0.0000    225.3000    795.0068      1.0000      0.1816      0.0000      1.0000      0.8705      0.6930      0.0756           0
119326          D                  1650.0000      0.0000    248.0000    373.5572      1.0000      0.1353      0.0000      1.0000      0.8705      0.2430      0.0756           0
119306          D                  1780.0000      0.0000    217.6000    488.4371      1.0000      0.1882      0.0000      1.0000      0.8705      0.2430      0.0756           0
119318          C                  1520.0000      0.0000    107.4000    558.1687      1.0000      0.2275      0.0000      1.0000      0.9500      0.1000      0.0756           1
119318          C                  1520.0000      0.0000    107.4000    558.1687      1.0000      0.2546      0.0000      1.0000      0.9500      0.1000      0.0756           1
119314          C                  1520.0000      0.0000    121.6000    480.2729      1.0000      0.2080      0.0000      1.0000      0.8705      0.6930      0.0756           0
120862          C                  2160.0000      0.0000    225.3000    795.0068      1.0000      0.1852      0.0000      1.0000      0.9500      0.1000      0.0756           1
120862          C                  2160.0000      0.0000    225.3000    795.0068      1.0000      0.3104      0.0000      1.0000      0.9500      0.1000      0.0756           1
119318          C                  1520.0000      0.0000    107.4000    558.1687      1.0000      0.2924      0.0000      1.0000      0.9500      0.1000      0.0756           1
119328          B                  1520.0000      0.0000    121.6000    575.5403      1.0000      0.1448      0.0000      1.0000      0.9500      0.1000      0.0756           1
119314          C                  1520.0000      0.0000    121.6000    480.2729      1.0000      0.2972      0.0000      1.0000      0.9500      0.1000      0.0756           1
119314          C                  1520.0000      0.0000    121.6000    480.2729      1.0000      0.2240      0.0000      1.0000      0.8705      0.9500      0.0756           0
119333          B                  1520.0000      0.0000    121.6000    474.2343      1.0000      0.0871      0.0000      1.0000      0.8705      0.2430      0.0756           0
119333          B                  1520.0000      0.0000    121.6000    474.2343      1.0000      0.1079      0.0000      1.0000      0.8705      0.2430      0.0756           0
119314          C                  1520.0000      0.0000    121.6000    480.2729      1.0000      0.1855      0.0000      1.0000      0.8705      0.6930      0.0756           0
119314          C                  1520.0000      0.0000    121.6000    480.2729      1.0000      0.2752      0.0000      1.0000      0.8705      0.6930      0.0756           0
119318          C                  1520.0000      0.0000    107.4000    558.1687      1.0000      0.2823      0.0000      1.0000      0.9500      0.1000      0.0756           1
120848          B                  1780.0000      0.0000     99.2000    756.9116      1.0000      0.8747      0.0000      1.0000      0.7234      1.0000      0.0756           0
119307          D                  1780.0000      0.0000    217.6000    488.4371      1.0000      0.3732      0.0000      1.0000      0.7234      0.2430      0.0756           0
55396           D                  1520.0000      0.0000     45.6000    129.6303      1.0000      0.4301      0.0000      1.0000      0.7234      0.2430      0.0756           0
120873          C                  1600.0000      0.0000    116.1000    347.0011      1.0000      0.8364      0.0000      1.0000      0.7234      0.6930      0.0756           0
120873          C                  1600.0000      0.0000    116.1000    347.0011      1.0000      1.7828      0.0000      1.0000      0.4234      0.6930      0.1159           0
120854          A                  2030.0000      0.0000    106.1000    647.5656      1.0000      0.1579      0.0000      1.0000      0.8705      1.0000      0.0756           0
120860          B                  1650.0000      0.0000    117.2000    603.6488      1.0000      0.1276      0.0000      1.0000      0.8705      1.0000      0.0756           0
120860          B                  1650.0000      0.0000    117.2000    603.6488      1.0000      0.1276      0.0000      1.0000      0.8705      1.0000      0.0756           0
120877          C                  1600.0000      0.0000    125.7000    612.2667      1.0000      0.1974      0.0000      1.0000      0.8705      0.6930      0.0756           0
120877          C                  1600.0000      0.0000    125.7000    612.2667      1.0000      0.1974      0.0000      1.0000      0.8705      0.6930      0.0756           0
120877          C                  1600.0000      0.0000    125.7000    612.2667      1.0000      0.1121      0.0000      1.0000      0.8705      0.6930      0.0756           0
119325          B                  1520.0000      0.0000    122.1000    517.9222      1.0000      0.1669      0.0000      1.0000      0.8705      0.2430      0.0756           0
119325          B                  1520.0000      0.0000    122.1000    517.9222      1.0000      0.0888      0.0000      1.0000      0.8705      0.9500      0.0756           0
119325          B                  1520.0000      0.0000    122.1000    517.9222      1.0000      0.0916      0.0000      1.0000      0.8705      0.9500      0.0756           0
119314          C                  1520.0000      0.0000    121.6000    480.2729      1.0000      0.2082      0.0000      1.0000      0.9500      0.1000      0.0756           1
119325          B                  1520.0000      0.0000    122.1000    517.9222      1.0000      0.2248      0.0000      1.0000      0.8705      0.2430      0.0756           0
119325          B                  1520.0000      0.0000    122.1000    517.9222      1.0000      0.1630      0.0000      1.0000      0.8705      0.2430      0.0756           0
119328          B                  1520.0000      0.0000    121.6000    575.5403      1.0000      0.2359      0.0000      1.0000      0.8705      1.0000      0.0756           0
122461          D                  1620.0000      0.0000    214.5000    363.7945      1.0000      0.0906      0.0000      1.0000      0.8705      0.2430      0.0756           0
122461          D                  1620.0000      0.0000    214.5000    363.7945      1.0000      0.0994      0.0000      1.0000      0.8705      0.2430      0.0756           0
122461          D                  1620.0000      0.0000    214.5000    363.7945      1.0000      0.0994      0.0000      1.0000      0.8705      0.2430      0.0756           0
122442          D                  1520.0000      0.0000     45.6000    129.6303      1.0000      0.1338      0.0000      1.0000      0.8705      0.2430      0.0756           0
122442          D                  1520.0000      0.0000     45.6000    129.6303      1.0000      0.1211      0.0000      1.0000      0.8705      0.2430      0.0756           0
122440          A                  2030.0000      0.0000    263.9000    674.4196      1.0000      0.1858      0.0000      1.0000      0.8705      1.0000      0.0756           0
122440          A                  2030.0000      0.0000    263.9000    674.4196      1.0000      0.2928      0.0000      1.0000      0.8705      1.0000      0.0756           0
122440          A                  2030.0000      0.0000    263.9000    674.4196      1.0000      0.2511      0.0000      1.0000      0.8705      1.0000      0.0756           0
122461          D                  1620.0000      0.0000    214.5000    363.7945      1.0000      0.0959      0.0000      1.0000      0.8705      0.2430      0.0756           0
122442          D                  1520.0000      0.0000     45.6000    129.6303      1.0000      0.1064      0.0000      1.0000      0.8705      0.2430      0.0756           0
122403          C                  1880.0000      0.0000    181.8000    638.9254      1.0000      0.2394      0.0000      1.0000      0.8705      0.6930      0.0756           0
122438          B                  1900.0000      0.0000    163.0000    646.8617      1.0000      0.0995      0.0000      1.0000      0.8705      0.2430      0.0756           0
122463          D                  1780.0000      0.0000    235.3000    490.2546      1.0000      0.1533      0.0000      1.0000      0.8705      0.2430      0.0756           0
122444          B                  1520.0000      0.0000    140.6000    536.9753      1.0000      0.0819      0.0000      1.0000      0.8705      0.2430      0.0756           0
122422          D                  1830.0000      0.0000    192.8000    529.5037      1.0000      0.9700      0.0000      1.0000      0.4234      0.2430      0.1159           0
122431          C                  1600.0000      0.0000    130.5000    464.8978      1.0000      0.1407      0.0000      1.0000      0.8705      0.6930      0.0756           0
122432          C                  1600.0000      0.0000    130.5000    464.8978      1.0000      0.2329      0.0000      1.0000      0.8705      0.6930      0.0756           0
122425          B                  1620.0000      0.0000    104.4000    717.8654      1.0000      0.1064      0.0000      1.0000      0.8705      0.2430      0.0756           0
119314          C                  1520.0000      0.0000    121.6000    480.2729      1.0000      0.2014      0.0000      1.0000      0.8705      0.6930      0.0756           0
119333          B                  1520.0000      0.0000    121.6000    474.2343      1.0000      0.0932      0.0000      1.0000      0.8705      0.2430      0.0756           0
119314          C                  1520.0000      0.0000    121.6000    480.2729      1.0000      0.2091      0.0000      1.0000      0.8705      0.6930      0.0756           0
119314          C                  1520.0000      0.0000    121.6000    480.2729      1.0000      0.2091      0.0000      1.0000      0.8705      0.6930      0.0756           0
119333          B                  1520.0000      0.0000    121.6000    474.2343      1.0000      0.1213      0.0000      1.0000      0.8705      0.2430      0.0756           0
119311          B                  1520.0000      0.0000    285.0000    655.8651      1.0000      0.0885      0.0000      1.0000      0.8705      0.2430      0.0756           0
119317          C                  1520.0000      0.0000    107.4000    558.1687      1.0000      0.1095      0.0000      1.0000      0.8705      0.6930      0.0756           0
119331          B                  1520.0000      0.0000    109.6000    504.9372      1.0000      0.1759      0.0000      1.0000      0.8705      0.9500      0.0756           0
55396           D                  1520.0000      0.0000     45.6000    129.6303      1.0000      0.1937      0.0000      1.0000      0.8705      0.2430      0.0756           0
120869          C                  1570.0000      0.0000    155.4000    662.2501      1.0000      0.0756      0.0000      1.0000      0.8705      0.2430      0.0756           0
120869          C                  1570.0000      0.0000    155.4000    662.2501      1.0000      0.0721      0.0000      1.0000      0.8705      0.2430      0.0756           0
120874          A                  1680.0000      0.0000    100.0000    712.9625      1.0000      0.0742      0.0000      1.0000      0.8705      0.2430      0.0756           0
