 ceap_02080206             SWAT+ 2025-06-27        MODULAR Rev 2025.61.0.2.11-158-g240face                
 ob_typ         props       area_ha   flash_idx       mean          max        p.1               p.5           p1                 p2             p3             p5            p10            p15            p20            p25            p30            p35            p40            p45            p50            p55            p60            p65            p70            p75            p80            p85            p90            p95            p97            p98            p99            min 
