                   SWAT+               
             Revision 61.0.2.11-158-g240face  
      Soil & Water Assessment Tool    
IntelLLVM (2023.1.0), 2025-06-27 14:16:40, Windows
    Program reading . . . executing


  Date of Sim   6/30/2025 Time  11:35:37
 reading from pet file                   Time  11:35:37
 reading from precipitation file         Time  11:35:37
 reading from temperature file           Time  11:35:37
 reading from solar radiation file       Time  11:35:40
 reading from relative humidity file     Time  11:35:43
 reading from wind file                  Time  11:35:43
 reading from wgn file                   Time  11:35:43
 reading from wx station file            Time  11:35:43
  Original Simulation            1   1  1997 Yr    1 of   24 Time  11:35:45
  Original Simulation            1   2  1997 Yr    1 of   24 Time  11:35:45
  Original Simulation            1   3  1997 Yr    1 of   24 Time  11:35:45
  Original Simulation            1   4  1997 Yr    1 of   24 Time  11:35:45
  Original Simulation            1   5  1997 Yr    1 of   24 Time  11:35:45
  Original Simulation            1   6  1997 Yr    1 of   24 Time  11:35:45
  Original Simulation            1   7  1997 Yr    1 of   24 Time  11:35:45
  Original Simulation            1   8  1997 Yr    1 of   24 Time  11:35:45
  Original Simulation            1   9  1997 Yr    1 of   24 Time  11:35:45
  Original Simulation            1  10  1997 Yr    1 of   24 Time  11:35:46
  Original Simulation            1  11  1997 Yr    1 of   24 Time  11:35:46
  Original Simulation            1  12  1997 Yr    1 of   24 Time  11:35:46
  Original Simulation            1  13  1997 Yr    1 of   24 Time  11:35:46
  Original Simulation            1  14  1997 Yr    1 of   24 Time  11:35:46
  Original Simulation            1  15  1997 Yr    1 of   24 Time  11:35:46
  Original Simulation            1  16  1997 Yr    1 of   24 Time  11:35:46
  Original Simulation            1  17  1997 Yr    1 of   24 Time  11:35:46
  Original Simulation            1  18  1997 Yr    1 of   24 Time  11:35:46
  Original Simulation            1  19  1997 Yr    1 of   24 Time  11:35:46
  Original Simulation            1  20  1997 Yr    1 of   24 Time  11:35:46
  Original Simulation            1  21  1997 Yr    1 of   24 Time  11:35:46
  Original Simulation            1  22  1997 Yr    1 of   24 Time  11:35:46
  Original Simulation            1  23  1997 Yr    1 of   24 Time  11:35:46
  Original Simulation            1  24  1997 Yr    1 of   24 Time  11:35:46
  Original Simulation            1  25  1997 Yr    1 of   24 Time  11:35:46
  Original Simulation            1  26  1997 Yr    1 of   24 Time  11:35:46
  Original Simulation            1  27  1997 Yr    1 of   24 Time  11:35:46
  Original Simulation            1  28  1997 Yr    1 of   24 Time  11:35:46
  Original Simulation            1  29  1997 Yr    1 of   24 Time  11:35:46
  Original Simulation            1  30  1997 Yr    1 of   24 Time  11:35:46
  Original Simulation            1  31  1997 Yr    1 of   24 Time  11:35:46
  Original Simulation            2   1  1997 Yr    1 of   24 Time  11:35:46
  Original Simulation            2   2  1997 Yr    1 of   24 Time  11:35:47
  Original Simulation            2   3  1997 Yr    1 of   24 Time  11:35:47
  Original Simulation            2   4  1997 Yr    1 of   24 Time  11:35:47
  Original Simulation            2   5  1997 Yr    1 of   24 Time  11:35:47
  Original Simulation            2   6  1997 Yr    1 of   24 Time  11:35:47
  Original Simulation            2   7  1997 Yr    1 of   24 Time  11:35:47
  Original Simulation            2   8  1997 Yr    1 of   24 Time  11:35:47
  Original Simulation            2   9  1997 Yr    1 of   24 Time  11:35:47
  Original Simulation            2  10  1997 Yr    1 of   24 Time  11:35:47
  Original Simulation            2  11  1997 Yr    1 of   24 Time  11:35:47
  Original Simulation            2  12  1997 Yr    1 of   24 Time  11:35:47
  Original Simulation            2  13  1997 Yr    1 of   24 Time  11:35:47
  Original Simulation            2  14  1997 Yr    1 of   24 Time  11:35:47
  Original Simulation            2  15  1997 Yr    1 of   24 Time  11:35:47
  Original Simulation            2  16  1997 Yr    1 of   24 Time  11:35:47
  Original Simulation            2  17  1997 Yr    1 of   24 Time  11:35:47
  Original Simulation            2  18  1997 Yr    1 of   24 Time  11:35:47
  Original Simulation            2  19  1997 Yr    1 of   24 Time  11:35:47
  Original Simulation            2  20  1997 Yr    1 of   24 Time  11:35:47
  Original Simulation            2  21  1997 Yr    1 of   24 Time  11:35:47
  Original Simulation            2  22  1997 Yr    1 of   24 Time  11:35:47
  Original Simulation            2  23  1997 Yr    1 of   24 Time  11:35:47
  Original Simulation            2  24  1997 Yr    1 of   24 Time  11:35:47
  Original Simulation            2  25  1997 Yr    1 of   24 Time  11:35:48
  Original Simulation            2  26  1997 Yr    1 of   24 Time  11:35:48
  Original Simulation            2  27  1997 Yr    1 of   24 Time  11:35:48
  Original Simulation            2  28  1997 Yr    1 of   24 Time  11:35:48
  Original Simulation            3   1  1997 Yr    1 of   24 Time  11:35:48
  Original Simulation            3   2  1997 Yr    1 of   24 Time  11:35:48
  Original Simulation            3   3  1997 Yr    1 of   24 Time  11:35:48
  Original Simulation            3   4  1997 Yr    1 of   24 Time  11:35:48
  Original Simulation            3   5  1997 Yr    1 of   24 Time  11:35:48
  Original Simulation            3   6  1997 Yr    1 of   24 Time  11:35:48
  Original Simulation            3   7  1997 Yr    1 of   24 Time  11:35:48
  Original Simulation            3   8  1997 Yr    1 of   24 Time  11:35:48
  Original Simulation            3   9  1997 Yr    1 of   24 Time  11:35:48
  Original Simulation            3  10  1997 Yr    1 of   24 Time  11:35:48
  Original Simulation            3  11  1997 Yr    1 of   24 Time  11:35:48
  Original Simulation            3  12  1997 Yr    1 of   24 Time  11:35:48
  Original Simulation            3  13  1997 Yr    1 of   24 Time  11:35:48
  Original Simulation            3  14  1997 Yr    1 of   24 Time  11:35:48
  Original Simulation            3  15  1997 Yr    1 of   24 Time  11:35:48
