 BHAC                      SWAT+ 2025-07-14        MODULAR Rev 2025.61.0.2.11-203-g0e56fa9                
                                        zmx       usle_k       sumfc       sumul      usle_p     usle_ls        esco        epco     cn3_swf       perco     latq_co   tiledrain 
 sname           hydgrp                 (mm)                    (mm)        (mm)                                                                                     0=notile;1=tile;
PAd             C                   500.0000      0.0000     60.4500    106.0071      1.0000      1.2221      0.9500      0.5000      0.9500      0.5000      0.0100           0
PAd             C                   500.0000      0.0000     60.4500    106.0071      1.0000      1.0983      0.9500      0.5000      0.9500      0.5000      0.0100           0
PAd             C                   500.0000      0.0000     60.4500    106.0071      1.0000      0.6376      0.9500      0.5000      0.9500      0.5000      0.0100           0
PAd             C                   500.0000      0.0000     60.4500    106.0071      0.7500      0.5584      0.9500      0.5000      0.9500      0.5000      0.0100           0
PAd             C                   500.0000      0.0000     60.4500    106.0071      1.0000      0.6965      0.9500      0.5000      0.9500      0.5000      0.0100           0
PAd             C                   500.0000      0.0000     60.4500    106.0071      1.0000      0.9397      0.9500      0.5000      0.9500      0.5000      0.0100           0
PAd             C                   500.0000      0.0000     60.4500    106.0071      1.0000      1.1033      0.9500      0.5000      0.9500      0.5000      0.0100           0
PAd             C                   500.0000      0.0000     60.4500    106.0071      1.0000      0.6410      0.9500      0.5000      0.9500      0.5000      0.0100           0
PAd             C                   500.0000      0.0000     60.4500    106.0071      1.0000      0.9505      0.9500      0.5000      0.9500      0.5000      0.0100           0
PAd             C                   500.0000      0.0000     60.4500    106.0071      1.0000      0.6971      0.9500      0.5000      0.9500      0.5000      0.0100           0
PAd             C                   500.0000      0.0000     60.4500    106.0071      1.0000      0.9051      0.9500      0.5000      0.9500      0.5000      0.0100           0
PAd             C                   500.0000      0.0000     60.4500    106.0071      1.0000      0.9947      0.9500      0.5000      0.9500      0.5000      0.0100           0
PAd             C                   500.0000      0.0000     60.4500    106.0071      1.0000      0.7856      0.9500      0.5000      0.9500      0.5000      0.0100           0
PAd             C                   500.0000      0.0000     60.4500    106.0071      1.0000      0.6273      0.9500      0.5000      0.9500      0.5000      0.0100           0
PAd             C                   500.0000      0.0000     60.4500    106.0071      1.0000      0.3374      0.9500      0.5000      0.9500      0.5000      0.0100           0
PAd             C                   500.0000      0.0000     60.4500    106.0071      0.7500      0.7765      0.9500      0.5000      0.9500      0.5000      0.0100           0
PAd             C                   500.0000      0.0000     60.4500    106.0071      1.0000      1.3307      0.9500      0.5000      0.9500      0.5000      0.0100           0
PAd             C                   500.0000      0.0000     60.4500    106.0071      1.0000      0.7997      0.9500      0.5000      0.9500      0.5000      0.0100           0
PAd             C                   500.0000      0.0000     60.4500    106.0071      1.0000      0.9574      0.9500      0.5000      0.9500      0.5000      0.0100           0
PAd             C                   500.0000      0.0000     60.4500    106.0071      1.0000      0.7615      0.9500      0.5000      0.9500      0.5000      0.0100           0
PAd             C                   500.0000      0.0000     60.4500    106.0071      0.7500      0.9245      0.9500      0.5000      0.9500      0.5000      0.0100           0
PAd             C                   500.0000      0.0000     60.4500    106.0071      0.7500      0.7033      0.9500      0.5000      0.9500      0.5000      0.0100           0
PAd             C                   500.0000      0.0000     60.4500    106.0071      1.0000      0.6852      0.9500      0.5000      0.9500      0.5000      0.0100           0
PAd             C                   500.0000      0.0000     60.4500    106.0071      1.0000      0.5758      0.9500      0.5000      0.9500      0.5000      0.0100           0
PAd             C                   500.0000      0.0000     60.4500    106.0071      1.0000      0.8605      0.9500      0.5000      0.9500      0.5000      0.0100           0
PAd             C                   500.0000      0.0000     60.4500    106.0071      1.0000      1.3913      0.9500      0.5000      0.9500      0.5000      0.0100           0
PAd             C                   500.0000      0.0000     60.4500    106.0071      1.0000      2.2881      0.9500      0.5000      0.9500      0.5000      0.0100           0
PAd             C                   500.0000      0.0000     60.4500    106.0071      0.7500      1.1299      0.9500      0.5000      0.9500      0.5000      0.0100           0
PAd             C                   500.0000      0.0000     60.4500    106.0071      1.0000      1.2311      0.9500      0.5000      0.9500      0.5000      0.0100           0
PAd             C                   500.0000      0.0000     60.4500    106.0071      1.0000      0.7035      0.9500      0.5000      0.9500      0.5000      0.0100           0
PAd             C                   500.0000      0.0000     60.4500    106.0071      0.7500      0.6219      0.9500      0.5000      0.9500      0.5000      0.0100           0
PAd             C                   500.0000      0.0000     60.4500    106.0071      0.7500      0.7220      0.9500      0.5000      0.9500      0.5000      0.0100           0
PAd             C                   500.0000      0.0000     60.4500    106.0071      0.7500      0.0663      0.9500      0.5000      0.9500      0.5000      0.0100           0
PAd             C                   500.0000      0.0000     60.4500    106.0071      1.0000      0.7078      0.9500      0.5000      0.9500      0.5000      0.0100           0
PAd             C                   500.0000      0.0000     60.4500    106.0071      1.0000      1.2769      0.9500      0.5000      0.9500      0.5000      0.0100           0
PAd             C                   500.0000      0.0000     60.4500    106.0071      1.0000      1.0810      0.9500      0.5000      0.9500      0.5000      0.0100           0
PAd             C                   500.0000      0.0000     60.4500    106.0071      0.7500      1.2528      0.9500      0.5000      0.9500      0.5000      0.0100           0
PAd             C                   500.0000      0.0000     60.4500    106.0071      1.0000      1.2490      0.9500      0.5000      0.9500      0.5000      0.0100           0
PAd             C                   500.0000      0.0000     60.4500    106.0071      1.0000      0.5309      0.9500      0.5000      0.9500      0.5000      0.0100           0
PAd             C                   500.0000      0.0000     60.4500    106.0071      1.0000      3.2230      0.9500      0.5000      0.9500      0.5000      0.0100           0
PAd             C                   500.0000      0.0000     60.4500    106.0071      0.7500      0.5348      0.9500      0.5000      0.9500      0.5000      0.0100           0
PAd             C                   500.0000      0.0000     60.4500    106.0071      1.0000      1.2274      0.9500      0.5000      0.9500      0.5000      0.0100           0
PAd             C                   500.0000      0.0000     60.4500    106.0071      1.0000      0.6536      0.9500      0.5000      0.9500      0.5000      0.0100           0
PAd             C                   500.0000      0.0000     60.4500    106.0071      1.0000      0.5912      0.9500      0.5000      0.9500      0.5000      0.0100           0
PAd             C                   500.0000      0.0000     60.4500    106.0071      1.0000      0.7189      0.9500      0.5000      0.9500      0.5000      0.0100           0
PAd             C                   500.0000      0.0000     60.4500    106.0071      1.0000      1.2764      0.9500      0.5000      0.9500      0.5000      0.0100           0
PAd             C                   500.0000      0.0000     60.4500    106.0071      1.0000      2.9582      0.9500      0.5000      0.9500      0.5000      0.0100           0
PAd             C                   500.0000      0.0000     60.4500    106.0071      1.0000      1.5408      0.9500      0.5000      0.9500      0.5000      0.0100           0
PAd             C                   500.0000      0.0000     60.4500    106.0071      1.0000      3.4158      0.9500      0.5000      0.9500      0.5000      0.0100           0
PAd             C                   500.0000      0.0000     60.4500    106.0071      1.0000      0.5478      0.9500      0.5000      0.9500      0.5000      0.0100           0
PAd             C                   500.0000      0.0000     60.4500    106.0071      1.0000      0.0797      0.9500      0.5000      0.9500      0.5000      0.0100           0
PAd             C                   500.0000      0.0000     60.4500    106.0071      1.0000      0.8210      0.9500      0.5000      0.9500      0.5000      0.0100           0
PAd             C                   500.0000      0.0000     60.4500    106.0071      0.7500      0.6389      0.9500      0.5000      0.9500      0.5000      0.0100           0
PAd             C                   500.0000      0.0000     60.4500    106.0071      0.7500      0.0797      0.9500      0.5000      0.9500      0.5000      0.0100           0
PAd             C                   500.0000      0.0000     60.4500    106.0071      0.7500      0.8205      0.9500      0.5000      0.9500      0.5000      0.0100           0
PAd             C                   500.0000      0.0000     60.4500    106.0071      0.7500      0.5731      0.9500      0.5000      0.9500      0.5000      0.0100           0
PAd             C                   500.0000      0.0000     60.4500    106.0071      0.7500      0.0663      0.9500      0.5000      0.9500      0.5000      0.0100           0
PAd             C                   500.0000      0.0000     60.4500    106.0071      0.7500      0.6958      0.9500      0.5000      0.9500      0.5000      0.0100           0
PAd             C                   500.0000      0.0000     60.4500    106.0071      0.7500      1.0641      0.9500      0.5000      0.9500      0.5000      0.0100           0
PAd             C                   500.0000      0.0000     60.4500    106.0071      1.0000      2.6327      0.9500      0.5000      0.9500      0.5000      0.0100           0
PAd             C                   500.0000      0.0000     60.4500    106.0071      1.0000      1.6259      0.9500      0.5000      0.9500      0.5000      0.0100           0
PAd             C                   500.0000      0.0000     60.4500    106.0071      1.0000      0.7753      0.9500      0.5000      0.9500      0.5000      0.0100           0
PAd             C                   500.0000      0.0000     60.4500    106.0071      1.0000      1.0509      0.9500      0.5000      0.9500      0.5000      0.0100           0
PAd             C                   500.0000      0.0000     60.4500    106.0071      1.0000      0.6536      0.9500      0.5000      0.9500      0.5000      0.0100           0
PAd             C                   500.0000      0.0000     60.4500    106.0071      1.0000      0.7438      0.9500      0.5000      0.9500      0.5000      0.0100           0
PAd             C                   500.0000      0.0000     60.4500    106.0071      1.0000      0.8701      0.9500      0.5000      0.9500      0.5000      0.0100           0
PAd             C                   500.0000      0.0000     60.4500    106.0071      1.0000      0.6402      0.9500      0.5000      0.9500      0.5000      0.0100           0
PAd             C                   500.0000      0.0000     60.4500    106.0071      1.0000      0.0663      0.9500      0.5000      0.9500      0.5000      0.0100           0
PAd             C                   500.0000      0.0000     60.4500    106.0071      1.0000      0.7455      0.9500      0.5000      0.9500      0.5000      0.0100           0
PAd             C                   500.0000      0.0000     60.4500    106.0071      1.0000      0.7408      0.9500      0.5000      0.9500      0.5000      0.0100           0
PAd             C                   500.0000      0.0000     60.4500    106.0071      1.0000      1.0581      0.9500      0.5000      0.9500      0.5000      0.0100           0
PAd             C                   500.0000      0.0000     60.4500    106.0071      0.7500      0.6402      0.9500      0.5000      0.9500      0.5000      0.0100           0
PAd             C                   500.0000      0.0000     60.4500    106.0071      1.0000      0.8208      0.9500      0.5000      0.9500      0.5000      0.0100           0
PAd             C                   500.0000      0.0000     60.4500    106.0071      0.7500      0.9241      0.9500      0.5000      0.9500      0.5000      0.0100           0
PAd             C                   500.0000      0.0000     60.4500    106.0071      1.0000      0.7375      0.9500      0.5000      0.9500      0.5000      0.0100           0
PAd             C                   500.0000      0.0000     60.4500    106.0071      1.0000      0.0663      0.9500      0.5000      0.9500      0.5000      0.0100           0
PAd             C                   500.0000      0.0000     60.4500    106.0071      1.0000      0.6364      0.9500      0.5000      0.9500      0.5000      0.0100           0
PAd             C                   500.0000      0.0000     60.4500    106.0071      0.7500      0.7410      0.9500      0.5000      0.9500      0.5000      0.0100           0
PAd             C                   500.0000      0.0000     60.4500    106.0071      1.0000      0.9571      0.9500      0.5000      0.9500      0.5000      0.0100           0
PAd             C                   500.0000      0.0000     60.4500    106.0071      1.0000      1.0868      0.9500      0.5000      0.9500      0.5000      0.0100           0
PAd             C                   500.0000      0.0000     60.4500    106.0071      1.0000      0.7302      0.9500      0.5000      0.9500      0.5000      0.0100           0
PAd             C                   500.0000      0.0000     60.4500    106.0071      1.0000      0.8382      0.9500      0.5000      0.9500      0.5000      0.0100           0
PAd             C                   500.0000      0.0000     60.4500    106.0071      1.0000      1.0481      0.9500      0.5000      0.9500      0.5000      0.0100           0
PAd             C                   500.0000      0.0000     60.4500    106.0071      1.0000      0.6715      0.9500      0.5000      0.9500      0.5000      0.0100           0
PAd             C                   500.0000      0.0000     60.4500    106.0071      1.0000      2.4500      0.9500      0.5000      0.9500      0.5000      0.0100           0
PAd             C                   500.0000      0.0000     60.4500    106.0071      1.0000      0.6943      0.9500      0.5000      0.9500      0.5000      0.0100           0
PAd             C                   500.0000      0.0000     60.4500    106.0071      1.0000      0.8284      0.9500      0.5000      0.9500      0.5000      0.0100           0
PAd             C                   500.0000      0.0000     60.4500    106.0071      0.7500      0.9989      0.9500      0.5000      0.9500      0.5000      0.0100           0
PAd             C                   500.0000      0.0000     60.4500    106.0071      1.0000      1.1058      0.9500      0.5000      0.9500      0.5000      0.0100           0
PAd             C                   500.0000      0.0000     60.4500    106.0071      1.0000      2.7138      0.9500      0.5000      0.9500      0.5000      0.0100           0
PAd             C                   500.0000      0.0000     60.4500    106.0071      1.0000      0.9706      0.9500      0.5000      0.9500      0.5000      0.0100           0
PAd             C                   500.0000      0.0000     60.4500    106.0071      1.0000      2.1952      0.9500      0.5000      0.9500      0.5000      0.0100           0
PAd             C                   500.0000      0.0000     60.4500    106.0071      1.0000      0.6807      0.9500      0.5000      0.9500      0.5000      0.0100           0
PAd             C                   500.0000      0.0000     60.4500    106.0071      1.0000      0.0967      0.9500      0.5000      0.9500      0.5000      0.0100           0
PAd             C                   500.0000      0.0000     60.4500    106.0071      1.0000      0.9345      0.9500      0.5000      0.9500      0.5000      0.0100           0
PAd             C                   500.0000      0.0000     60.4500    106.0071      1.0000      0.7165      0.9500      0.5000      0.9500      0.5000      0.0100           0
PAd             C                   500.0000      0.0000     60.4500    106.0071      0.7500      0.6990      0.9500      0.5000      0.9500      0.5000      0.0100           0
PAd             C                   500.0000      0.0000     60.4500    106.0071      0.7500      0.8871      0.9500      0.5000      0.9500      0.5000      0.0100           0
PAd             C                   500.0000      0.0000     60.4500    106.0071      1.0000      1.1618      0.9500      0.5000      0.9500      0.5000      0.0100           0
PAd             C                   500.0000      0.0000     60.4500    106.0071      1.0000      1.0690      0.9500      0.5000      0.9500      0.5000      0.0100           0
PAd             C                   500.0000      0.0000     60.4500    106.0071      1.0000      0.9048      0.9500      0.5000      0.9500      0.5000      0.0100           0
PAd             C                   500.0000      0.0000     60.4500    106.0071      1.0000      0.6661      0.9500      0.5000      0.9500      0.5000      0.0100           0
PAd             C                   500.0000      0.0000     60.4500    106.0071      1.0000      0.0971      0.9500      0.5000      0.9500      0.5000      0.0100           0
PAd             C                   500.0000      0.0000     60.4500    106.0071      0.7500      0.9563      0.9500      0.5000      0.9500      0.5000      0.0100           0
PAd             C                   500.0000      0.0000     60.4500    106.0071      1.0000      0.9751      0.9500      0.5000      0.9500      0.5000      0.0100           0
PAd             C                   500.0000      0.0000     60.4500    106.0071      1.0000      0.6057      0.9500      0.5000      0.9500      0.5000      0.0100           0
PAd             C                   500.0000      0.0000     60.4500    106.0071      1.0000      1.1211      0.9500      0.5000      0.9500      0.5000      0.0100           0
PAd             C                   500.0000      0.0000     60.4500    106.0071      0.7500      0.9203      0.9500      0.5000      0.9500      0.5000      0.0100           0
PAd             C                   500.0000      0.0000     60.4500    106.0071      1.0000      0.0663      0.9500      0.5000      0.9500      0.5000      0.0100           0
PAd             C                   500.0000      0.0000     60.4500    106.0071      1.0000      1.3716      0.9500      0.5000      0.9500      0.5000      0.0100           0
PAd             C                   500.0000      0.0000     60.4500    106.0071      1.0000      1.4570      0.9500      0.5000      0.9500      0.5000      0.0100           0
PAd             C                   500.0000      0.0000     60.4500    106.0071      1.0000      1.4437      0.9500      0.5000      0.9500      0.5000      0.0100           0
PAd             C                   500.0000      0.0000     60.4500    106.0071      1.0000      2.6895      0.9500      0.5000      0.9500      0.5000      0.0100           0
PAd             C                   500.0000      0.0000     60.4500    106.0071      1.0000      3.4935      0.9500      0.5000      0.9500      0.5000      0.0100           0
PAd             C                   500.0000      0.0000     60.4500    106.0071      1.0000      1.1676      0.9500      0.5000      0.9500      0.5000      0.0100           0
PAd             C                   500.0000      0.0000     60.4500    106.0071      1.0000      0.5330      0.9500      0.5000      0.9500      0.5000      0.0100           0
PAd             C                   500.0000      0.0000     60.4500    106.0071      0.7500      1.3554      0.9500      0.5000      0.9500      0.5000      0.0100           0
PAd             C                   500.0000      0.0000     60.4500    106.0071      0.7500      0.6513      0.9500      0.5000      0.9500      0.5000      0.0100           0
PAd             C                   500.0000      0.0000     60.4500    106.0071      0.7500      1.0866      0.9500      0.5000      0.9500      0.5000      0.0100           0
PAd             C                   500.0000      0.0000     60.4500    106.0071      1.0000      0.7504      0.9500      0.5000      0.9500      0.5000      0.0100           0
PAd             C                   500.0000      0.0000     60.4500    106.0071      1.0000      0.6697      0.9500      0.5000      0.9500      0.5000      0.0100           0
PAd             C                   500.0000      0.0000     60.4500    106.0071      1.0000      1.2077      0.9500      0.5000      0.9500      0.5000      0.0100           0
PAd             C                   500.0000      0.0000     60.4500    106.0071      1.0000      0.1719      0.9500      0.5000      0.9500      0.5000      0.0100           0
PAd             C                   500.0000      0.0000     60.4500    106.0071      1.0000      0.8720      0.9500      0.5000      0.9500      0.5000      0.0100           0
PAd             C                   500.0000      0.0000     60.4500    106.0071      1.0000      0.5178      0.9500      0.5000      0.9500      0.5000      0.0100           0
PAd             C                   500.0000      0.0000     60.4500    106.0071      1.0000      0.0667      0.9500      0.5000      0.9500      0.5000      0.0100           0
PAd             C                   500.0000      0.0000     60.4500    106.0071      0.7500      0.7339      0.9500      0.5000      0.9500      0.5000      0.0100           0
PAd             C                   500.0000      0.0000     60.4500    106.0071      1.0000      0.9144      0.9500      0.5000      0.9500      0.5000      0.0100           0
PAd             C                   500.0000      0.0000     60.4500    106.0071      1.0000      0.7327      0.9500      0.5000      0.9500      0.5000      0.0100           0
PAd             C                   500.0000      0.0000     60.4500    106.0071      0.7500      0.5566      0.9500      0.5000      0.9500      0.5000      0.0100           0
PAd             C                   500.0000      0.0000     60.4500    106.0071      0.7500      0.8953      0.9500      0.5000      0.9500      0.5000      0.0100           0
PAd             C                   500.0000      0.0000     60.4500    106.0071      1.0000      0.6507      0.9500      0.5000      0.9500      0.5000      0.0100           0
PAd             C                   500.0000      0.0000     60.4500    106.0071      1.0000      0.8834      0.9500      0.5000      0.9500      0.5000      0.0100           0
PAd             C                   500.0000      0.0000     60.4500    106.0071      0.7500      0.9235      0.9500      0.5000      0.9500      0.5000      0.0100           0
PAd             C                   500.0000      0.0000     60.4500    106.0071      0.7500      0.9437      0.9500      0.5000      0.9500      0.5000      0.0100           0
PAd             C                   500.0000      0.0000     60.4500    106.0071      0.7500      0.7082      0.9500      0.5000      0.9500      0.5000      0.0100           0
PAd             C                   500.0000      0.0000     60.4500    106.0071      1.0000      0.7065      0.9500      0.5000      0.9500      0.5000      0.0100           0
PAd             C                   500.0000      0.0000     60.4500    106.0071      1.0000      0.5883      0.9500      0.5000      0.9500      0.5000      0.0100           0
PAd             C                   500.0000      0.0000     60.4500    106.0071      1.0000      0.0663      0.9500      0.5000      0.9500      0.5000      0.0100           0
PAd             C                   500.0000      0.0000     60.4500    106.0071      0.7500      0.7424      0.9500      0.5000      0.9500      0.5000      0.0100           0
PAd             C                   500.0000      0.0000     60.4500    106.0071      0.7500      0.0663      0.9500      0.5000      0.9500      0.5000      0.0100           0
PAd             C                   500.0000      0.0000     60.4500    106.0071      0.7500      0.6518      0.9500      0.5000      0.9500      0.5000      0.0100           0
PAd             C                   500.0000      0.0000     60.4500    106.0071      1.0000      0.7139      0.9500      0.5000      0.9500      0.5000      0.0100           0
PAd             C                   500.0000      0.0000     60.4500    106.0071      1.0000      0.7683      0.9500      0.5000      0.9500      0.5000      0.0100           0
PAd             C                   500.0000      0.0000     60.4500    106.0071      1.0000      0.6154      0.9500      0.5000      0.9500      0.5000      0.0100           0
PAd             C                   500.0000      0.0000     60.4500    106.0071      1.0000      0.0840      0.9500      0.5000      0.9500      0.5000      0.0100           0
PAd             C                   500.0000      0.0000     60.4500    106.0071      1.0000      0.7226      0.9500      0.5000      0.9500      0.5000      0.0100           0
PAd             C                   500.0000      0.0000     60.4500    106.0071      1.0000      0.0663      0.9500      0.5000      0.9500      0.5000      0.0100           0
PAd             C                   500.0000      0.0000     60.4500    106.0071      1.0000      0.6840      0.9500      0.5000      0.9500      0.5000      0.0100           0
PAd             C                   500.0000      0.0000     60.4500    106.0071      1.0000      0.1006      0.9500      0.5000      0.9500      0.5000      0.0100           0
PAd             C                   500.0000      0.0000     60.4500    106.0071      1.0000      0.8433      0.9500      0.5000      0.9500      0.5000      0.0100           0
PAd             C                   500.0000      0.0000     60.4500    106.0071      1.0000      0.7112      0.9500      0.5000      0.9500      0.5000      0.0100           0
PAd             C                   500.0000      0.0000     60.4500    106.0071      0.7500      0.6574      0.9500      0.5000      0.9500      0.5000      0.0100           0
PAd             C                   500.0000      0.0000     60.4500    106.0071      1.0000      0.9596      0.9500      0.5000      0.9500      0.5000      0.0100           0
PAd             C                   500.0000      0.0000     60.4500    106.0071      1.0000      0.6717      0.9500      0.5000      0.9500      0.5000      0.0100           0
PAd             C                   500.0000      0.0000     60.4500    106.0071      1.0000      0.7150      0.9500      0.5000      0.9500      0.5000      0.0100           0
PAd             C                   500.0000      0.0000     60.4500    106.0071      1.0000      0.5987      0.9500      0.5000      0.9500      0.5000      0.0100           0
PAd             C                   500.0000      0.0000     60.4500    106.0071      1.0000      0.6344      0.9500      0.5000      0.9500      0.5000      0.0100           0
PAd             C                   500.0000      0.0000     60.4500    106.0071      0.7500      1.2085      0.9500      0.5000      0.9500      0.5000      0.0100           0
PAd             C                   500.0000      0.0000     60.4500    106.0071      1.0000      1.0770      0.9500      0.5000      0.9500      0.5000      0.0100           0
PAd             C                   500.0000      0.0000     60.4500    106.0071      1.0000      0.9358      0.9500      0.5000      0.9500      0.5000      0.0100           0
PAd             C                   500.0000      0.0000     60.4500    106.0071      1.0000      0.6015      0.9500      0.5000      0.9500      0.5000      0.0100           0
PAd             C                   500.0000      0.0000     60.4500    106.0071      1.0000      0.9108      0.9500      0.5000      0.9500      0.5000      0.0100           0
PAd             C                   500.0000      0.0000     60.4500    106.0071      1.0000      0.6909      0.9500      0.5000      0.9500      0.5000      0.0100           0
PAd             C                   500.0000      0.0000     60.4500    106.0071      1.0000      0.9968      0.9500      0.5000      0.9500      0.5000      0.0100           0
PAd             C                   500.0000      0.0000     60.4500    106.0071      0.7500      1.0511      0.9500      0.5000      0.9500      0.5000      0.0100           0
PAd             C                   500.0000      0.0000     60.4500    106.0071      1.0000      1.0045      0.9500      0.5000      0.9500      0.5000      0.0100           0
PAd             C                   500.0000      0.0000     60.4500    106.0071      1.0000      1.0943      0.9500      0.5000      0.9500      0.5000      0.0100           0
PAd             C                   500.0000      0.0000     60.4500    106.0071      1.0000      2.9234      0.9500      0.5000      0.9500      0.5000      0.0100           0
PAd             C                   500.0000      0.0000     60.4500    106.0071      1.0000      1.2618      0.9500      0.5000      0.9500      0.5000      0.0100           0
PAd             C                   500.0000      0.0000     60.4500    106.0071      1.0000      0.5923      0.9500      0.5000      0.9500      0.5000      0.0100           0
PAd             C                   500.0000      0.0000     60.4500    106.0071      1.0000      0.6099      0.9500      0.5000      0.9500      0.5000      0.0100           0
PAd             C                   500.0000      0.0000     60.4500    106.0071      0.7500      0.5814      0.9500      0.5000      0.9500      0.5000      0.0100           0
PAd             C                   500.0000      0.0000     60.4500    106.0071      1.0000      0.6430      0.9500      0.5000      0.9500      0.5000      0.0100           0
PAd             C                   500.0000      0.0000     60.4500    106.0071      1.0000      0.8662      0.9500      0.5000      0.9500      0.5000      0.0100           0
PAd             C                   500.0000      0.0000     60.4500    106.0071      1.0000      0.7112      0.9500      0.5000      0.9500      0.5000      0.0100           0
PAd             C                   500.0000      0.0000     60.4500    106.0071      1.0000      0.8315      0.9500      0.5000      0.9500      0.5000      0.0100           0
PAd             C                   500.0000      0.0000     60.4500    106.0071      0.7500      0.0888      0.9500      0.5000      0.9500      0.5000      0.0100           0
PAd             C                   500.0000      0.0000     60.4500    106.0071      1.0000      0.6615      0.9500      0.5000      0.9500      0.5000      0.0100           0
PAd             C                   500.0000      0.0000     60.4500    106.0071      1.0000      0.8839      0.9500      0.5000      0.9500      0.5000      0.0100           0
PAd             C                   500.0000      0.0000     60.4500    106.0071      1.0000      0.9667      0.9500      0.5000      0.9500      0.5000      0.0100           0
PAd             C                   500.0000      0.0000     60.4500    106.0071      0.7500      0.6864      0.9500      0.5000      0.9500      0.5000      0.0100           0
PAd             C                   500.0000      0.0000     60.4500    106.0071      0.7500      0.8352      0.9500      0.5000      0.9500      0.5000      0.0100           0
PAd             C                   500.0000      0.0000     60.4500    106.0071      1.0000      0.6893      0.9500      0.5000      0.9500      0.5000      0.0100           0
PAd             C                   500.0000      0.0000     60.4500    106.0071      1.0000      0.8758      0.9500      0.5000      0.9500      0.5000      0.0100           0
PAd             C                   500.0000      0.0000     60.4500    106.0071      0.7500      0.7660      0.9500      0.5000      0.9500      0.5000      0.0100           0
PAd             C                   500.0000      0.0000     60.4500    106.0071      0.7500      0.6664      0.9500      0.5000      0.9500      0.5000      0.0100           0
PAd             C                   500.0000      0.0000     60.4500    106.0071      1.0000      0.7348      0.9500      0.5000      0.9500      0.5000      0.0100           0
PAd             C                   500.0000      0.0000     60.4500    106.0071      1.0000      0.7786      0.9500      0.5000      0.9500      0.5000      0.0100           0
PAd             C                   500.0000      0.0000     60.4500    106.0071      1.0000      0.6097      0.9500      0.5000      0.9500      0.5000      0.0100           0
PAd             C                   500.0000      0.0000     60.4500    106.0071      1.0000      0.5500      0.9500      0.5000      0.9500      0.5000      0.0100           0
PAd             C                   500.0000      0.0000     60.4500    106.0071      0.7500      0.9783      0.9500      0.5000      0.9500      0.5000      0.0100           0
PAd             C                   500.0000      0.0000     60.4500    106.0071      0.7500      0.7890      0.9500      0.5000      0.9500      0.5000      0.0100           0
PAd             C                   500.0000      0.0000     60.4500    106.0071      0.7500      0.6504      0.9500      0.5000      0.9500      0.5000      0.0100           0
PAd             C                   500.0000      0.0000     60.4500    106.0071      1.0000      0.9160      0.9500      0.5000      0.9500      0.5000      0.0100           0
PAd             C                   500.0000      0.0000     60.4500    106.0071      1.0000      0.6951      0.9500      0.5000      0.9500      0.5000      0.0100           0
PAd             C                   500.0000      0.0000     60.4500    106.0071      1.0000      1.3184      0.9500      0.5000      0.9500      0.5000      0.0100           0
PAd             C                   500.0000      0.0000     60.4500    106.0071      0.7500      0.6072      0.9500      0.5000      0.9500      0.5000      0.0100           0
PAd             C                   500.0000      0.0000     60.4500    106.0071      0.7500      0.7902      0.9500      0.5000      0.9500      0.5000      0.0100           0
PAd             C                   500.0000      0.0000     60.4500    106.0071      1.0000      0.6207      0.9500      0.5000      0.9500      0.5000      0.0100           0
PAd             C                   500.0000      0.0000     60.4500    106.0071      1.0000      1.0839      0.9500      0.5000      0.9500      0.5000      0.0100           0
PAd             C                   500.0000      0.0000     60.4500    106.0071      0.7500      0.6777      0.9500      0.5000      0.9500      0.5000      0.0100           0
PAd             C                   500.0000      0.0000     60.4500    106.0071      0.7500      0.1092      0.9500      0.5000      0.9500      0.5000      0.0100           0
PAd             C                   500.0000      0.0000     60.4500    106.0071      0.7500      0.5912      0.9500      0.5000      0.9500      0.5000      0.0100           0
PAd             C                   500.0000      0.0000     60.4500    106.0071      0.7500      0.7891      0.9500      0.5000      0.9500      0.5000      0.0100           0
PAd             C                   500.0000      0.0000     60.4500    106.0071      1.0000      0.6836      0.9500      0.5000      0.9500      0.5000      0.0100           0
PAd             C                   500.0000      0.0000     60.4500    106.0071      1.0000      0.0664      0.9500      0.5000      0.9500      0.5000      0.0100           0
PAd             C                   500.0000      0.0000     60.4500    106.0071      0.7500      0.9200      0.9500      0.5000      0.9500      0.5000      0.0100           0
PAd             C                   500.0000      0.0000     60.4500    106.0071      0.7500      0.6768      0.9500      0.5000      0.9500      0.5000      0.0100           0
PAd             C                   500.0000      0.0000     60.4500    106.0071      0.7500      1.0603      0.9500      0.5000      0.9500      0.5000      0.0100           0
PAd             C                   500.0000      0.0000     60.4500    106.0071      0.7500      0.6532      0.9500      0.5000      0.9500      0.5000      0.0100           0
PAd             C                   500.0000      0.0000     60.4500    106.0071      1.0000      1.1003      0.9500      0.5000      0.9500      0.5000      0.0100           0
PAd             C                   500.0000      0.0000     60.4500    106.0071      1.0000      0.8605      0.9500      0.5000      0.9500      0.5000      0.0100           0
PAd             C                   500.0000      0.0000     60.4500    106.0071      0.7500      0.6727      0.9500      0.5000      0.9500      0.5000      0.0100           0
PAd             C                   500.0000      0.0000     60.4500    106.0071      0.7500      1.0294      0.9500      0.5000      0.9500      0.5000      0.0100           0
PAd             C                   500.0000      0.0000     60.4500    106.0071      1.0000      0.4837      0.9500      0.5000      0.9500      0.5000      0.0100           0
PAd             C                   500.0000      0.0000     60.4500    106.0071      1.0000      0.5558      0.9500      0.5000      0.9500      0.5000      0.0100           0
PAd             C                   500.0000      0.0000     60.4500    106.0071      1.0000      0.7686      0.9500      0.5000      0.9500      0.5000      0.0100           0
PAd             C                   500.0000      0.0000     60.4500    106.0071      0.7500      0.8110      0.9500      0.5000      0.9500      0.5000      0.0100           0
PAd             C                   500.0000      0.0000     60.4500    106.0071      0.7500      0.9793      0.9500      0.5000      0.9500      0.5000      0.0100           0
PAd             C                   500.0000      0.0000     60.4500    106.0071      0.7500      0.5933      0.9500      0.5000      0.9500      0.5000      0.0100           0
PAd             C                   500.0000      0.0000     60.4500    106.0071      1.0000      1.0337      0.9500      0.5000      0.9500      0.5000      0.0100           0
PAd             C                   500.0000      0.0000     60.4500    106.0071      1.0000      0.7007      0.9500      0.5000      0.9500      0.5000      0.0100           0
PAd             C                   500.0000      0.0000     60.4500    106.0071      1.0000      0.6206      0.9500      0.5000      0.9500      0.5000      0.0100           0
PAd             C                   500.0000      0.0000     60.4500    106.0071      1.0000      0.9210      0.9500      0.5000      0.9500      0.5000      0.0100           0
PAd             C                   500.0000      0.0000     60.4500    106.0071      0.7500      0.6143      0.9500      0.5000      0.9500      0.5000      0.0100           0
PAe             C                  1200.0000      0.0000    120.1700    325.4791      1.0000      0.8173      0.9500      0.5000      0.9500      0.5000      0.0100           0
PAe             C                  1200.0000      0.0000    120.1700    325.4791      1.0000      0.6411      0.9500      0.5000      0.9500      0.5000      0.0100           0
PAe             C                  1200.0000      0.0000    120.1700    325.4791      1.0000      0.6848      0.9500      0.5000      0.9500      0.5000      0.0100           0
PAe             C                  1200.0000      0.0000    120.1700    325.4791      1.0000      0.7890      0.9500      0.5000      0.9500      0.5000      0.0100           0
PAe             C                  1200.0000      0.0000    120.1700    325.4791      1.0000      0.6579      0.9500      0.5000      0.9500      0.5000      0.0100           0
PAe             C                  1200.0000      0.0000    120.1700    325.4791      1.0000      0.1044      0.9500      0.5000      0.9500      0.5000      0.0100           0
PAe             C                  1200.0000      0.0000    120.1700    325.4791      1.0000      0.7656      0.9500      0.5000      0.9500      0.5000      0.0100           0
PAe             C                  1200.0000      0.0000    120.1700    325.4791      1.0000      0.7406      0.9500      0.5000      0.9500      0.5000      0.0100           0
PAe             C                  1200.0000      0.0000    120.1700    325.4791      0.7500      0.5484      0.9500      0.5000      0.9500      0.5000      0.0100           0
PAd             C                   500.0000      0.0000     60.4500    106.0071      1.0000      0.6028      0.9500      0.5000      0.9500      0.5000      0.0100           0
PAd             C                   500.0000      0.0000     60.4500    106.0071      1.0000      0.5244      0.9500      0.5000      0.9500      0.5000      0.0100           0
PAd             C                   500.0000      0.0000     60.4500    106.0071      0.7500      0.5767      0.9500      0.5000      0.9500      0.5000      0.0100           0
PAd             C                   500.0000      0.0000     60.4500    106.0071      1.0000      0.7979      0.9500      0.5000      0.9500      0.5000      0.0100           0
PAd             C                   500.0000      0.0000     60.4500    106.0071      1.0000      0.6919      0.9500      0.5000      0.9500      0.5000      0.0100           0
PAd             C                   500.0000      0.0000     60.4500    106.0071      1.0000      0.7457      0.9500      0.5000      0.9500      0.5000      0.0100           0
PAd             C                   500.0000      0.0000     60.4500    106.0071      1.0000      0.8614      0.9500      0.5000      0.9500      0.5000      0.0100           0
PAd             C                   500.0000      0.0000     60.4500    106.0071      0.7500      0.6501      0.9500      0.5000      0.9500      0.5000      0.0100           0
PAd             C                   500.0000      0.0000     60.4500    106.0071      0.7500      0.9725      0.9500      0.5000      0.9500      0.5000      0.0100           0
PAd             C                   500.0000      0.0000     60.4500    106.0071      1.0000      0.6160      0.9500      0.5000      0.9500      0.5000      0.0100           0
PAd             C                   500.0000      0.0000     60.4500    106.0071      1.0000      0.8351      0.9500      0.5000      0.9500      0.5000      0.0100           0
PAd             C                   500.0000      0.0000     60.4500    106.0071      1.0000      0.5418      0.9500      0.5000      0.9500      0.5000      0.0100           0
PAd             C                   500.0000      0.0000     60.4500    106.0071      0.7500      0.5826      0.9500      0.5000      0.9500      0.5000      0.0100           0
PAd             C                   500.0000      0.0000     60.4500    106.0071      1.0000      1.1648      0.9500      0.5000      0.9500      0.5000      0.0100           0
PAd             C                   500.0000      0.0000     60.4500    106.0071      0.7500      0.9111      0.9500      0.5000      0.9500      0.5000      0.0100           0
PAd             C                   500.0000      0.0000     60.4500    106.0071      0.7500      0.7105      0.9500      0.5000      0.9500      0.5000      0.0100           0
PAd             C                   500.0000      0.0000     60.4500    106.0071      1.0000      0.9755      0.9500      0.5000      0.9500      0.5000      0.0100           0
PAd             C                   500.0000      0.0000     60.4500    106.0071      1.0000      0.6449      0.9500      0.5000      0.9500      0.5000      0.0100           0
PAd             C                   500.0000      0.0000     60.4500    106.0071      1.0000      0.8571      0.9500      0.5000      0.9500      0.5000      0.0100           0
PAd             C                   500.0000      0.0000     60.4500    106.0071      1.0000      0.7261      0.9500      0.5000      0.9500      0.5000      0.0100           0
PAd             C                   500.0000      0.0000     60.4500    106.0071      0.7500      0.8698      0.9500      0.5000      0.9500      0.5000      0.0100           0
PAd             C                   500.0000      0.0000     60.4500    106.0071      0.7500      0.6857      0.9500      0.5000      0.9500      0.5000      0.0100           0
PAd             C                   500.0000      0.0000     60.4500    106.0071      1.0000      0.6886      0.9500      0.5000      0.9500      0.5000      0.0100           0
PAd             C                   500.0000      0.0000     60.4500    106.0071      1.0000      1.0178      0.9500      0.5000      0.9500      0.5000      0.0100           0
PAd             C                   500.0000      0.0000     60.4500    106.0071      0.7500      0.8368      0.9500      0.5000      0.9500      0.5000      0.0100           0
PAd             C                   500.0000      0.0000     60.4500    106.0071      0.7500      0.5732      0.9500      0.5000      0.9500      0.5000      0.0100           0
PAd             C                   500.0000      0.0000     60.4500    106.0071      1.0000      0.7002      0.9500      0.5000      0.9500      0.5000      0.0100           0
PAe             C                  1200.0000      0.0000    120.1700    325.4791      1.0000      0.5706      0.9500      0.5000      0.9500      0.5000      0.0100           0
PAd             C                   500.0000      0.0000     60.4500    106.0071      0.7500      0.6777      0.9500      0.5000      0.9500      0.5000      0.0100           0
PAe             C                  1200.0000      0.0000    120.1700    325.4791      1.0000      0.6136      0.9500      0.5000      0.9500      0.5000      0.0100           0
PAd             C                   500.0000      0.0000     60.4500    106.0071      0.7500      0.7288      0.9500      0.5000      0.9500      0.5000      0.0100           0
PAd             C                   500.0000      0.0000     60.4500    106.0071      0.7500      0.0663      0.9500      0.5000      0.9500      0.5000      0.0100           0
PAd             C                   500.0000      0.0000     60.4500    106.0071      1.0000      0.7065      0.9500      0.5000      0.9500      0.5000      0.0100           0
PAd             C                   500.0000      0.0000     60.4500    106.0071      1.0000      0.8659      0.9500      0.5000      0.9500      0.5000      0.0100           0
PAd             C                   500.0000      0.0000     60.4500    106.0071      0.7500      0.7813      0.9500      0.5000      0.9500      0.5000      0.0100           0
PAd             C                   500.0000      0.0000     60.4500    106.0071      0.7500      0.8176      0.9500      0.5000      0.9500      0.5000      0.0100           0
PAe             C                  1200.0000      0.0000    120.1700    325.4791      1.0000      0.7260      0.9500      0.5000      0.9500      0.5000      0.0100           0
PAe             C                  1200.0000      0.0000    120.1700    325.4791      1.0000      0.8776      0.9500      0.5000      0.9500      0.5000      0.0100           0
PAe             C                  1200.0000      0.0000    120.1700    325.4791      1.0000      1.0103      0.9500      0.5000      0.9500      0.5000      0.0100           0
PAe             C                  1200.0000      0.0000    120.1700    325.4791      1.0000      0.0869      0.9500      0.5000      0.9500      0.5000      0.0100           0
PAe             C                  1200.0000      0.0000    120.1700    325.4791      1.0000      0.5821      0.9500      0.5000      0.9500      0.5000      0.0100           0
PAe             C                  1200.0000      0.0000    120.1700    325.4791      1.0000      0.1132      0.9500      0.5000      0.9500      0.5000      0.0100           0
PAe             C                  1200.0000      0.0000    120.1700    325.4791      1.0000      0.5253      0.9500      0.5000      0.9500      0.5000      0.0100           0
PAe             C                  1200.0000      0.0000    120.1700    325.4791      1.0000      0.5064      0.9500      0.5000      0.9500      0.5000      0.0100           0
PAe             C                  1200.0000      0.0000    120.1700    325.4791      1.0000      0.0925      0.9500      0.5000      0.9500      0.5000      0.0100           0
PAe             C                  1200.0000      0.0000    120.1700    325.4791      1.0000      0.6661      0.9500      0.5000      0.9500      0.5000      0.0100           0
PAe             C                  1200.0000      0.0000    120.1700    325.4791      1.0000      0.0663      0.9500      0.5000      0.9500      0.5000      0.0100           0
PAe             C                  1200.0000      0.0000    120.1700    325.4791      0.7500      0.5454      0.9500      0.5000      0.9500      0.5000      0.0100           0
PAe             C                  1200.0000      0.0000    120.1700    325.4791      1.0000      0.0663      0.9500      0.5000      0.9500      0.5000      0.0100           0
PAe             C                  1200.0000      0.0000    120.1700    325.4791      1.0000      0.8892      0.9500      0.5000      0.9500      0.5000      0.0100           0
PAe             C                  1200.0000      0.0000    120.1700    325.4791      1.0000      0.6834      0.9500      0.5000      0.9500      0.5000      0.0100           0
PAe             C                  1200.0000      0.0000    120.1700    325.4791      0.7500      0.9049      0.9500      0.5000      0.9500      0.5000      0.0100           0
PAe             C                  1200.0000      0.0000    120.1700    325.4791      1.0000      0.5977      0.9500      0.5000      0.9500      0.5000      0.0100           0
PAe             C                  1200.0000      0.0000    120.1700    325.4791      1.0000      0.0890      0.9500      0.5000      0.9500      0.5000      0.0100           0
PAe             C                  1200.0000      0.0000    120.1700    325.4791      1.0000      0.6956      0.9500      0.5000      0.9500      0.5000      0.0100           0
PAe             C                  1200.0000      0.0000    120.1700    325.4791      1.0000      0.0786      0.9500      0.5000      0.9500      0.5000      0.0100           0
PAe             C                  1200.0000      0.0000    120.1700    325.4791      0.7500      0.5556      0.9500      0.5000      0.9500      0.5000      0.0100           0
PAe             C                  1200.0000      0.0000    120.1700    325.4791      1.0000      1.0441      0.9500      0.5000      0.9500      0.5000      0.0100           0
PAe             C                  1200.0000      0.0000    120.1700    325.4791      0.7500      0.6687      0.9500      0.5000      0.9500      0.5000      0.0100           0
PAe             C                  1200.0000      0.0000    120.1700    325.4791      0.7500      0.7640      0.9500      0.5000      0.9500      0.5000      0.0100           0
PAe             C                  1200.0000      0.0000    120.1700    325.4791      1.0000      0.7419      0.9500      0.5000      0.9500      0.5000      0.0100           0
PAe             C                  1200.0000      0.0000    120.1700    325.4791      1.0000      0.9714      0.9500      0.5000      0.9500      0.5000      0.0100           0
PAe             C                  1200.0000      0.0000    120.1700    325.4791      1.0000      0.5842      0.9500      0.5000      0.9500      0.5000      0.0100           0
PAe             C                  1200.0000      0.0000    120.1700    325.4791      1.0000      0.8692      0.9500      0.5000      0.9500      0.5000      0.0100           0
PAe             C                  1200.0000      0.0000    120.1700    325.4791      1.0000      0.6079      0.9500      0.5000      0.9500      0.5000      0.0100           0
PAe             C                  1200.0000      0.0000    120.1700    325.4791      1.0000      0.9727      0.9500      0.5000      0.9500      0.5000      0.0100           0
PAe             C                  1200.0000      0.0000    120.1700    325.4791      1.0000      0.8967      0.9500      0.5000      0.9500      0.5000      0.0100           0
PAe             C                  1200.0000      0.0000    120.1700    325.4791      1.0000      0.8070      0.9500      0.5000      0.9500      0.5000      0.0100           0
PAe             C                  1200.0000      0.0000    120.1700    325.4791      1.0000      0.5694      0.9500      0.5000      0.9500      0.5000      0.0100           0
PAe             C                  1200.0000      0.0000    120.1700    325.4791      1.0000      0.0895      0.9500      0.5000      0.9500      0.5000      0.0100           0
PAe             C                  1200.0000      0.0000    120.1700    325.4791      1.0000      1.0854      0.9500      0.5000      0.9500      0.5000      0.0100           0
PAe             C                  1200.0000      0.0000    120.1700    325.4791      1.0000      0.6158      0.9500      0.5000      0.9500      0.5000      0.0100           0
PAe             C                  1200.0000      0.0000    120.1700    325.4791      1.0000      0.9961      0.9500      0.5000      0.9500      0.5000      0.0100           0
PAe             C                  1200.0000      0.0000    120.1700    325.4791      0.7500      0.5349      0.9500      0.5000      0.9500      0.5000      0.0100           0
PAe             C                  1200.0000      0.0000    120.1700    325.4791      1.0000      1.2407      0.9500      0.5000      0.9500      0.5000      0.0100           0
PAe             C                  1200.0000      0.0000    120.1700    325.4791      1.0000      1.1002      0.9500      0.5000      0.9500      0.5000      0.0100           0
PAe             C                  1200.0000      0.0000    120.1700    325.4791      1.0000      1.2671      0.9500      0.5000      0.9500      0.5000      0.0100           0
PAe             C                  1200.0000      0.0000    120.1700    325.4791      0.7500      0.7611      0.9500      0.5000      0.9500      0.5000      0.0100           0
PAe             C                  1200.0000      0.0000    120.1700    325.4791      0.7500      0.7542      0.9500      0.5000      0.9500      0.5000      0.0100           0
PAe             C                  1200.0000      0.0000    120.1700    325.4791      1.0000      0.7588      0.9500      0.5000      0.9500      0.5000      0.0100           0
PAe             C                  1200.0000      0.0000    120.1700    325.4791      1.0000      0.8279      0.9500      0.5000      0.9500      0.5000      0.0100           0
PAe             C                  1200.0000      0.0000    120.1700    325.4791      1.0000      0.7142      0.9500      0.5000      0.9500      0.5000      0.0100           0
PAe             C                  1200.0000      0.0000    120.1700    325.4791      1.0000      0.3374      0.9500      0.5000      0.9500      0.5000      0.0100           0
PAe             C                  1200.0000      0.0000    120.1700    325.4791      1.0000      0.8201      0.9500      0.5000      0.9500      0.5000      0.0100           0
PAe             C                  1200.0000      0.0000    120.1700    325.4791      1.0000      1.2409      0.9500      0.5000      0.9500      0.5000      0.0100           0
PAe             C                  1200.0000      0.0000    120.1700    325.4791      1.0000      0.7339      0.9500      0.5000      0.9500      0.5000      0.0100           0
PAe             C                  1200.0000      0.0000    120.1700    325.4791      1.0000      0.6813      0.9500      0.5000      0.9500      0.5000      0.0100           0
PAe             C                  1200.0000      0.0000    120.1700    325.4791      1.0000      0.8276      0.9500      0.5000      0.9500      0.5000      0.0100           0
PAe             C                  1200.0000      0.0000    120.1700    325.4791      1.0000      0.6147      0.9500      0.5000      0.9500      0.5000      0.0100           0
PAe             C                  1200.0000      0.0000    120.1700    325.4791      1.0000      0.0663      0.9500      0.5000      0.9500      0.5000      0.0100           0
PAe             C                  1200.0000      0.0000    120.1700    325.4791      1.0000      0.6029      0.9500      0.5000      0.9500      0.5000      0.0100           0
PAe             C                  1200.0000      0.0000    120.1700    325.4791      1.0000      0.8427      0.9500      0.5000      0.9500      0.5000      0.0100           0
PAe             C                  1200.0000      0.0000    120.1700    325.4791      1.0000      0.6504      0.9500      0.5000      0.9500      0.5000      0.0100           0
PAe             C                  1200.0000      0.0000    120.1700    325.4791      1.0000      0.7446      0.9500      0.5000      0.9500      0.5000      0.0100           0
PAe             C                  1200.0000      0.0000    120.1700    325.4791      1.0000      0.8103      0.9500      0.5000      0.9500      0.5000      0.0100           0
PAe             C                  1200.0000      0.0000    120.1700    325.4791      1.0000      0.6484      0.9500      0.5000      0.9500      0.5000      0.0100           0
PAe             C                  1200.0000      0.0000    120.1700    325.4791      1.0000      0.5683      0.9500      0.5000      0.9500      0.5000      0.0100           0
PAe             C                  1200.0000      0.0000    120.1700    325.4791      1.0000      0.7285      0.9500      0.5000      0.9500      0.5000      0.0100           0
PAe             C                  1200.0000      0.0000    120.1700    325.4791      1.0000      1.0740      0.9500      0.5000      0.9500      0.5000      0.0100           0
PAe             C                  1200.0000      0.0000    120.1700    325.4791      1.0000      0.6972      0.9500      0.5000      0.9500      0.5000      0.0100           0
PAe             C                  1200.0000      0.0000    120.1700    325.4791      1.0000      1.3591      0.9500      0.5000      0.9500      0.5000      0.0100           0
PAe             C                  1200.0000      0.0000    120.1700    325.4791      1.0000      0.5418      0.9500      0.5000      0.9500      0.5000      0.0100           0
PAe             C                  1200.0000      0.0000    120.1700    325.4791      1.0000      0.8192      0.9500      0.5000      0.9500      0.5000      0.0100           0
PAe             C                  1200.0000      0.0000    120.1700    325.4791      1.0000      0.1355      0.9500      0.5000      0.9500      0.5000      0.0100           0
PAe             C                  1200.0000      0.0000    120.1700    325.4791      1.0000      0.5882      0.9500      0.5000      0.9500      0.5000      0.0100           0
PAe             C                  1200.0000      0.0000    120.1700    325.4791      1.0000      1.1071      0.9500      0.5000      0.9500      0.5000      0.0100           0
PAe             C                  1200.0000      0.0000    120.1700    325.4791      1.0000      0.1485      0.9500      0.5000      0.9500      0.5000      0.0100           0
PAe             C                  1200.0000      0.0000    120.1700    325.4791      1.0000      0.6101      0.9500      0.5000      0.9500      0.5000      0.0100           0
PAe             C                  1200.0000      0.0000    120.1700    325.4791      1.0000      1.0497      0.9500      0.5000      0.9500      0.5000      0.0100           0
PAe             C                  1200.0000      0.0000    120.1700    325.4791      1.0000      0.5456      0.9500      0.5000      0.9500      0.5000      0.0100           0
PAe             C                  1200.0000      0.0000    120.1700    325.4791      0.7500      0.6085      0.9500      0.5000      0.9500      0.5000      0.0100           0
PAe             C                  1200.0000      0.0000    120.1700    325.4791      0.7500      0.8819      0.9500      0.5000      0.9500      0.5000      0.0100           0
PAe             C                  1200.0000      0.0000    120.1700    325.4791      1.0000      1.2818      0.9500      0.5000      0.9500      0.5000      0.0100           0
PAe             C                  1200.0000      0.0000    120.1700    325.4791      1.0000      1.1866      0.9500      0.5000      0.9500      0.5000      0.0100           0
PAe             C                  1200.0000      0.0000    120.1700    325.4791      1.0000      0.5656      0.9500      0.5000      0.9500      0.5000      0.0100           0
PAe             C                  1200.0000      0.0000    120.1700    325.4791      1.0000      0.1718      0.9500      0.5000      0.9500      0.5000      0.0100           0
PAe             C                  1200.0000      0.0000    120.1700    325.4791      1.0000      0.5743      0.9500      0.5000      0.9500      0.5000      0.0100           0
PAe             C                  1200.0000      0.0000    120.1700    325.4791      1.0000      0.0664      0.9500      0.5000      0.9500      0.5000      0.0100           0
PAe             C                  1200.0000      0.0000    120.1700    325.4791      1.0000      1.1256      0.9500      0.5000      0.9500      0.5000      0.0100           0
PAe             C                  1200.0000      0.0000    120.1700    325.4791      1.0000      0.9949      0.9500      0.5000      0.9500      0.5000      0.0100           0
PAe             C                  1200.0000      0.0000    120.1700    325.4791      1.0000      0.9716      0.9500      0.5000      0.9500      0.5000      0.0100           0
PAd             C                   500.0000      0.0000     60.4500    106.0071      0.7500      0.0663      0.9500      0.5000      0.9500      0.5000      0.0100           0
PAd             C                   500.0000      0.0000     60.4500    106.0071      0.7500      0.9850      0.9500      0.5000      0.9500      0.5000      0.0100           0
PAd             C                   500.0000      0.0000     60.4500    106.0071      0.7500      0.6828      0.9500      0.5000      0.9500      0.5000      0.0100           0
PAd             C                   500.0000      0.0000     60.4500    106.0071      1.0000      1.4388      0.9500      0.5000      0.9500      0.5000      0.0100           0
PAd             C                   500.0000      0.0000     60.4500    106.0071      1.0000      2.7252      0.9500      0.5000      0.9500      0.5000      0.0100           0
PAd             C                   500.0000      0.0000     60.4500    106.0071      0.7500      2.5790      0.9500      0.5000      0.9500      0.5000      0.0100           0
PAd             C                   500.0000      0.0000     60.4500    106.0071      0.7500      1.0855      0.9500      0.5000      0.9500      0.5000      0.0100           0
PAd             C                   500.0000      0.0000     60.4500    106.0071      0.7500      1.6479      0.9500      0.5000      0.9500      0.5000      0.0100           0
PAd             C                   500.0000      0.0000     60.4500    106.0071      0.7500      0.7133      0.9500      0.5000      0.9500      0.5000      0.0100           0
PAd             C                   500.0000      0.0000     60.4500    106.0071      0.7500      0.9655      0.9500      0.5000      0.9500      0.5000      0.0100           0
PAe             C                  1200.0000      0.0000    120.1700    325.4791      0.7500      0.8436      0.9500      0.5000      0.9500      0.5000      0.0100           0
PAe             C                  1200.0000      0.0000    120.1700    325.4791      0.7500      0.8452      0.9500      0.5000      0.9500      0.5000      0.0100           0
PAd             C                   500.0000      0.0000     60.4500    106.0071      0.7500      0.6781      0.9500      0.5000      0.9500      0.5000      0.0100           0
PAe             C                  1200.0000      0.0000    120.1700    325.4791      0.7500      0.5587      0.9500      0.5000      0.9500      0.5000      0.0100           0
PAd             C                   500.0000      0.0000     60.4500    106.0071      1.0000      0.5474      0.9500      0.5000      0.9500      0.5000      0.0100           0
PAd             C                   500.0000      0.0000     60.4500    106.0071      1.0000      0.0663      0.9500      0.5000      0.9500      0.5000      0.0100           0
PAe             C                  1200.0000      0.0000    120.1700    325.4791      1.0000      1.4530      0.9500      0.5000      0.9500      0.5000      0.0100           0
PAe             C                  1200.0000      0.0000    120.1700    325.4791      1.0000      1.2811      0.9500      0.5000      0.9500      0.5000      0.0100           0
PAe             C                  1200.0000      0.0000    120.1700    325.4791      0.7500      2.4953      0.9500      0.5000      0.9500      0.5000      0.0100           0
PAe             C                  1200.0000      0.0000    120.1700    325.4791      0.7500      1.4310      0.9500      0.5000      0.9500      0.5000      0.0100           0
PAe             C                  1200.0000      0.0000    120.1700    325.4791      0.7500      0.6609      0.9500      0.5000      0.9500      0.5000      0.0100           0
PAe             C                  1200.0000      0.0000    120.1700    325.4791      0.7500      0.1723      0.9500      0.5000      0.9500      0.5000      0.0100           0
PAe             C                  1200.0000      0.0000    120.1700    325.4791      0.7500      0.0663      0.9500      0.5000      0.9500      0.5000      0.0100           0
PAe             C                  1200.0000      0.0000    120.1700    325.4791      0.7500      0.4604      0.9500      0.5000      0.9500      0.5000      0.0100           0
PAe             C                  1200.0000      0.0000    120.1700    325.4791      0.7500      0.8254      0.9500      0.5000      0.9500      0.5000      0.0100           0
PAe             C                  1200.0000      0.0000    120.1700    325.4791      0.7500      0.6541      0.9500      0.5000      0.9500      0.5000      0.0100           0
PAe             C                  1200.0000      0.0000    120.1700    325.4791      0.7500      0.0859      0.9500      0.5000      0.9500      0.5000      0.0100           0
PAd             C                   500.0000      0.0000     60.4500    106.0071      0.7500      0.0663      0.9500      0.5000      0.9500      0.5000      0.0100           0
PAd             C                   500.0000      0.0000     60.4500    106.0071      0.7500      0.5399      0.9500      0.5000      0.9500      0.5000      0.0100           0
PAd             C                   500.0000      0.0000     60.4500    106.0071      0.7500      0.8751      0.9500      0.5000      0.9500      0.5000      0.0100           0
PAd             C                   500.0000      0.0000     60.4500    106.0071      1.0000      0.7248      0.9500      0.5000      0.9500      0.5000      0.0100           0
PAd             C                   500.0000      0.0000     60.4500    106.0071      0.7500      0.6753      0.9500      0.5000      0.9500      0.5000      0.0100           0
PAd             C                   500.0000      0.0000     60.4500    106.0071      0.7500      1.0153      0.9500      0.5000      0.9500      0.5000      0.0100           0
PAd             C                   500.0000      0.0000     60.4500    106.0071      0.7500      0.8807      0.9500      0.5000      0.9500      0.5000      0.0100           0
PAd             C                   500.0000      0.0000     60.4500    106.0071      0.7500      0.8553      0.9500      0.5000      0.9500      0.5000      0.0100           0
PAd             C                   500.0000      0.0000     60.4500    106.0071      1.0000      0.8246      0.9500      0.5000      0.9500      0.5000      0.0100           0
PAd             C                   500.0000      0.0000     60.4500    106.0071      0.7500      0.6203      0.9500      0.5000      0.9500      0.5000      0.0100           0
PAd             C                   500.0000      0.0000     60.4500    106.0071      1.0000      0.5540      0.9500      0.5000      0.9500      0.5000      0.0100           0
PAd             C                   500.0000      0.0000     60.4500    106.0071      1.0000      0.0665      0.9500      0.5000      0.9500      0.5000      0.0100           0
PAe             C                  1200.0000      0.0000    120.1700    325.4791      0.7500      0.6553      0.9500      0.5000      0.9500      0.5000      0.0100           0
PAe             C                  1200.0000      0.0000    120.1700    325.4791      0.7500      1.1184      0.9500      0.5000      0.9500      0.5000      0.0100           0
PAd             C                   500.0000      0.0000     60.4500    106.0071      1.0000      1.2424      0.9500      0.5000      0.9500      0.5000      0.0100           0
PAd             C                   500.0000      0.0000     60.4500    106.0071      1.0000      1.2075      0.9500      0.5000      0.9500      0.5000      0.0100           0
PAe             C                  1200.0000      0.0000    120.1700    325.4791      1.0000      1.0376      0.9500      0.5000      0.9500      0.5000      0.0100           0
PAd             C                   500.0000      0.0000     60.4500    106.0071      1.0000      1.2137      0.9500      0.5000      0.9500      0.5000      0.0100           0
PAd             C                   500.0000      0.0000     60.4500    106.0071      1.0000      1.3233      0.9500      0.5000      0.9500      0.5000      0.0100           0
PAd             C                   500.0000      0.0000     60.4500    106.0071      0.7500      1.0529      0.9500      0.5000      0.9500      0.5000      0.0100           0
PAe             C                  1200.0000      0.0000    120.1700    325.4791      0.7500      0.0924      0.9500      0.5000      0.9500      0.5000      0.0100           0
PAe             C                  1200.0000      0.0000    120.1700    325.4791      0.7500      0.6124      0.9500      0.5000      0.9500      0.5000      0.0100           0
PAe             C                  1200.0000      0.0000    120.1700    325.4791      0.7500      0.9309      0.9500      0.5000      0.9500      0.5000      0.0100           0
PAe             C                  1200.0000      0.0000    120.1700    325.4791      0.7500      0.8116      0.9500      0.5000      0.9500      0.5000      0.0100           0
PAe             C                  1200.0000      0.0000    120.1700    325.4791      1.0000      0.7993      0.9500      0.5000      0.9500      0.5000      0.0100           0
PAe             C                  1200.0000      0.0000    120.1700    325.4791      1.0000      0.5669      0.9500      0.5000      0.9500      0.5000      0.0100           0
PAe             C                  1200.0000      0.0000    120.1700    325.4791      0.7500      0.6909      0.9500      0.5000      0.9500      0.5000      0.0100           0
PAe             C                  1200.0000      0.0000    120.1700    325.4791      0.7500      0.8587      0.9500      0.5000      0.9500      0.5000      0.0100           0
PAe             C                  1200.0000      0.0000    120.1700    325.4791      1.0000      0.6134      0.9500      0.5000      0.9500      0.5000      0.0100           0
PAe             C                  1200.0000      0.0000    120.1700    325.4791      1.0000      0.1720      0.9500      0.5000      0.9500      0.5000      0.0100           0
PAe             C                  1200.0000      0.0000    120.1700    325.4791      1.0000      1.0440      0.9500      0.5000      0.9500      0.5000      0.0100           0
PAe             C                  1200.0000      0.0000    120.1700    325.4791      1.0000      1.3671      0.9500      0.5000      0.9500      0.5000      0.0100           0
PAe             C                  1200.0000      0.0000    120.1700    325.4791      1.0000      1.1149      0.9500      0.5000      0.9500      0.5000      0.0100           0
PAe             C                  1200.0000      0.0000    120.1700    325.4791      0.7500      0.6963      0.9500      0.5000      0.9500      0.5000      0.0100           0
PAe             C                  1200.0000      0.0000    120.1700    325.4791      0.7500      1.2264      0.9500      0.5000      0.9500      0.5000      0.0100           0
PAe             C                  1200.0000      0.0000    120.1700    325.4791      1.0000      0.8306      0.9500      0.5000      0.9500      0.5000      0.0100           0
PAe             C                  1200.0000      0.0000    120.1700    325.4791      1.0000      0.7669      0.9500      0.5000      0.9500      0.5000      0.0100           0
PAe             C                  1200.0000      0.0000    120.1700    325.4791      0.7500      0.9920      0.9500      0.5000      0.9500      0.5000      0.0100           0
PAe             C                  1200.0000      0.0000    120.1700    325.4791      0.7500      0.7244      0.9500      0.5000      0.9500      0.5000      0.0100           0
PAe             C                  1200.0000      0.0000    120.1700    325.4791      1.0000      0.6960      0.9500      0.5000      0.9500      0.5000      0.0100           0
PAe             C                  1200.0000      0.0000    120.1700    325.4791      1.0000      1.2068      0.9500      0.5000      0.9500      0.5000      0.0100           0
PAe             C                  1200.0000      0.0000    120.1700    325.4791      0.7500      0.5761      0.9500      0.5000      0.9500      0.5000      0.0100           0
PAe             C                  1200.0000      0.0000    120.1700    325.4791      0.7500      1.0773      0.9500      0.5000      0.9500      0.5000      0.0100           0
PAe             C                  1200.0000      0.0000    120.1700    325.4791      1.0000      0.8856      0.9500      0.5000      0.9500      0.5000      0.0100           0
PAe             C                  1200.0000      0.0000    120.1700    325.4791      0.7500      0.9608      0.9500      0.5000      0.9500      0.5000      0.0100           0
PAe             C                  1200.0000      0.0000    120.1700    325.4791      1.0000      1.0035      0.9500      0.5000      0.9500      0.5000      0.0100           0
PAe             C                  1200.0000      0.0000    120.1700    325.4791      1.0000      1.0667      0.9500      0.5000      0.9500      0.5000      0.0100           0
PAe             C                  1200.0000      0.0000    120.1700    325.4791      0.7500      1.0499      0.9500      0.5000      0.9500      0.5000      0.0100           0
PAe             C                  1200.0000      0.0000    120.1700    325.4791      0.7500      0.6948      0.9500      0.5000      0.9500      0.5000      0.0100           0
PAe             C                  1200.0000      0.0000    120.1700    325.4791      1.0000      1.0706      0.9500      0.5000      0.9500      0.5000      0.0100           0
PAe             C                  1200.0000      0.0000    120.1700    325.4791      1.0000      0.7168      0.9500      0.5000      0.9500      0.5000      0.0100           0
PAe             C                  1200.0000      0.0000    120.1700    325.4791      1.0000      0.6192      0.9500      0.5000      0.9500      0.5000      0.0100           0
PAe             C                  1200.0000      0.0000    120.1700    325.4791      1.0000      0.0925      0.9500      0.5000      0.9500      0.5000      0.0100           0
PAe             C                  1200.0000      0.0000    120.1700    325.4791      0.7500      0.8224      0.9500      0.5000      0.9500      0.5000      0.0100           0
PAe             C                  1200.0000      0.0000    120.1700    325.4791      1.0000      0.6017      0.9500      0.5000      0.9500      0.5000      0.0100           0
PAe             C                  1200.0000      0.0000    120.1700    325.4791      1.0000      1.0065      0.9500      0.5000      0.9500      0.5000      0.0100           0
PAe             C                  1200.0000      0.0000    120.1700    325.4791      1.0000      1.2428      0.9500      0.5000      0.9500      0.5000      0.0100           0
PAe             C                  1200.0000      0.0000    120.1700    325.4791      1.0000      0.6492      0.9500      0.5000      0.9500      0.5000      0.0100           0
PAe             C                  1200.0000      0.0000    120.1700    325.4791      1.0000      0.7380      0.9500      0.5000      0.9500      0.5000      0.0100           0
PAe             C                  1200.0000      0.0000    120.1700    325.4791      0.7500      0.7055      0.9500      0.5000      0.9500      0.5000      0.0100           0
PAe             C                  1200.0000      0.0000    120.1700    325.4791      1.0000      2.5486      0.9500      0.5000      0.9500      0.5000      0.0100           0
PAe             C                  1200.0000      0.0000    120.1700    325.4791      1.0000      1.3245      0.9500      0.5000      0.9500      0.5000      0.0100           0
PAe             C                  1200.0000      0.0000    120.1700    325.4791      1.0000      0.6392      0.9500      0.5000      0.9500      0.5000      0.0100           0
[...]
PAd             C                   500.0000      0.0000     60.4500    106.0071      1.0000      1.1989      0.9500      0.5000      0.9500      0.5000      0.0100           0
PAd             C                   500.0000      0.0000     60.4500    106.0071      0.7500      1.2800      0.9500      0.5000      0.9500      0.5000      0.0100           0
PAd             C                   500.0000      0.0000     60.4500    106.0071      1.0000      1.6380      0.9500      0.5000      0.9500      0.5000      0.0100           0
PAd             C                   500.0000      0.0000     60.4500    106.0071      0.7500      1.2125      0.9500      0.5000      0.9500      0.5000      0.0100           0
PAd             C                   500.0000      0.0000     60.4500    106.0071      1.0000      0.0663      0.9500      0.5000      0.9500      0.5000      0.0100           0
PAd             C                   500.0000      0.0000     60.4500    106.0071      1.0000      1.0255      0.9500      0.5000      0.9500      0.5000      0.0100           0
PAd             C                   500.0000      0.0000     60.4500    106.0071      1.0000      0.6341      0.9500      0.5000      0.9500      0.5000      0.0100           0
PAd             C                   500.0000      0.0000     60.4500    106.0071      0.7500      0.9880      0.9500      0.5000      0.9500      0.5000      0.0100           0
PAd             C                   500.0000      0.0000     60.4500    106.0071      0.7500      1.0056      0.9500      0.5000      0.9500      0.5000      0.0100           0
PAd             C                   500.0000      0.0000     60.4500    106.0071      1.0000      1.4794      0.9500      0.5000      0.9500      0.5000      0.0100           0
PAd             C                   500.0000      0.0000     60.4500    106.0071      1.0000      2.7785      0.9500      0.5000      0.9500      0.5000      0.0100           0
PAd             C                   500.0000      0.0000     60.4500    106.0071      1.0000      1.2712      0.9500      0.5000      0.9500      0.5000      0.0100           0
PAd             C                   500.0000      0.0000     60.4500    106.0071      1.0000      1.4099      0.9500      0.5000      0.9500      0.5000      0.0100           0
PAd             C                   500.0000      0.0000     60.4500    106.0071      1.0000      0.7593      0.9500      0.5000      0.9500      0.5000      0.0100           0
PAd             C                   500.0000      0.0000     60.4500    106.0071      1.0000      0.8744      0.9500      0.5000      0.9500      0.5000      0.0100           0
PAd             C                   500.0000      0.0000     60.4500    106.0071      1.0000      0.7969      0.9500      0.5000      0.9500      0.5000      0.0100           0
PAd             C                   500.0000      0.0000     60.4500    106.0071      1.0000      1.4525      0.9500      0.5000      0.9500      0.5000      0.0100           0
PAd             C                   500.0000      0.0000     60.4500    106.0071      1.0000      5.1982      0.9500      0.5000      0.9500      0.5000      0.0100           0
PAd             C                   500.0000      0.0000     60.4500    106.0071      1.0000      1.1497      0.9500      0.5000      0.9500      0.5000      0.0100           0
PAd             C                   500.0000      0.0000     60.4500    106.0071      1.0000      3.1061      0.9500      0.5000      0.9500      0.5000      0.0100           0
PAd             C                   500.0000      0.0000     60.4500    106.0071      1.0000      1.2923      0.9500      0.5000      0.9500      0.5000      0.0100           0
PAd             C                   500.0000      0.0000     60.4500    106.0071      1.0000      0.0663      0.9500      0.5000      0.9500      0.5000      0.0100           0
PAd             C                   500.0000      0.0000     60.4500    106.0071      1.0000      0.4778      0.9500      0.5000      0.9500      0.5000      0.0100           0
PAd             C                   500.0000      0.0000     60.4500    106.0071      1.0000      1.2071      0.9500      0.5000      0.9500      0.5000      0.0100           0
PAd             C                   500.0000      0.0000     60.4500    106.0071      0.7500      1.4973      0.9500      0.5000      0.9500      0.5000      0.0100           0
PAd             C                   500.0000      0.0000     60.4500    106.0071      1.0000      1.4946      0.9500      0.5000      0.9500      0.5000      0.0100           0
PAd             C                   500.0000      0.0000     60.4500    106.0071      1.0000      2.8363      0.9500      0.5000      0.9500      0.5000      0.0100           0
PAd             C                   500.0000      0.0000     60.4500    106.0071      1.0000      1.2454      0.9500      0.5000      0.9500      0.5000      0.0100           0
PAd             C                   500.0000      0.0000     60.4500    106.0071      1.0000      3.6216      0.9500      0.5000      0.9500      0.5000      0.0100           0
PAd             C                   500.0000      0.0000     60.4500    106.0071      1.0000      0.8406      0.9500      0.5000      0.9500      0.5000      0.0100           0
PAd             C                   500.0000      0.0000     60.4500    106.0071      1.0000      1.0839      0.9500      0.5000      0.9500      0.5000      0.0100           0
PAd             C                   500.0000      0.0000     60.4500    106.0071      1.0000      0.9052      0.9500      0.5000      0.9500      0.5000      0.0100           0
PAd             C                   500.0000      0.0000     60.4500    106.0071      0.7500      0.8625      0.9500      0.5000      0.9500      0.5000      0.0100           0
PAd             C                   500.0000      0.0000     60.4500    106.0071      1.0000      0.8625      0.9500      0.5000      0.9500      0.5000      0.0100           0
PAd             C                   500.0000      0.0000     60.4500    106.0071      1.0000      1.1577      0.9500      0.5000      0.9500      0.5000      0.0100           0
PAd             C                   500.0000      0.0000     60.4500    106.0071      1.0000      0.9717      0.9500      0.5000      0.9500      0.5000      0.0100           0
PAd             C                   500.0000      0.0000     60.4500    106.0071      1.0000      0.7563      0.9500      0.5000      0.9500      0.5000      0.0100           0
PAd             C                   500.0000      0.0000     60.4500    106.0071      1.0000      1.0387      0.9500      0.5000      0.9500      0.5000      0.0100           0
PAd             C                   500.0000      0.0000     60.4500    106.0071      1.0000      1.2600      0.9500      0.5000      0.9500      0.5000      0.0100           0
PAd             C                   500.0000      0.0000     60.4500    106.0071      1.0000      2.8029      0.9500      0.5000      0.9500      0.5000      0.0100           0
PAd             C                   500.0000      0.0000     60.4500    106.0071      1.0000      1.1304      0.9500      0.5000      0.9500      0.5000      0.0100           0
PAd             C                   500.0000      0.0000     60.4500    106.0071      1.0000      0.8858      0.9500      0.5000      0.9500      0.5000      0.0100           0
PAd             C                   500.0000      0.0000     60.4500    106.0071      0.7500      0.9001      0.9500      0.5000      0.9500      0.5000      0.0100           0
PAd             C                   500.0000      0.0000     60.4500    106.0071      0.7500      0.6760      0.9500      0.5000      0.9500      0.5000      0.0100           0
PAd             C                   500.0000      0.0000     60.4500    106.0071      1.0000      0.9132      0.9500      0.5000      0.9500      0.5000      0.0100           0
PAd             C                   500.0000      0.0000     60.4500    106.0071      1.0000      1.0508      0.9500      0.5000      0.9500      0.5000      0.0100           0
PAd             C                   500.0000      0.0000     60.4500    106.0071      1.0000      1.1429      0.9500      0.5000      0.9500      0.5000      0.0100           0
PAd             C                   500.0000      0.0000     60.4500    106.0071      1.0000      1.3734      0.9500      0.5000      0.9500      0.5000      0.0100           0
PAd             C                   500.0000      0.0000     60.4500    106.0071      1.0000      2.8064      0.9500      0.5000      0.9500      0.5000      0.0100           0
PAd             C                   500.0000      0.0000     60.4500    106.0071      1.0000      1.2056      0.9500      0.5000      0.9500      0.5000      0.0100           0
PAd             C                   500.0000      0.0000     60.4500    106.0071      1.0000      0.0662      0.9500      0.5000      0.9500      0.5000      0.0100           0
PAd             C                   500.0000      0.0000     60.4500    106.0071      1.0000      0.6261      0.9500      0.5000      0.9500      0.5000      0.0100           0
PAd             C                   500.0000      0.0000     60.4500    106.0071      1.0000      0.9949      0.9500      0.5000      0.9500      0.5000      0.0100           0
PAd             C                   500.0000      0.0000     60.4500    106.0071      1.0000      2.5927      0.9500      0.5000      0.9500      0.5000      0.0100           0
PAd             C                   500.0000      0.0000     60.4500    106.0071      1.0000      1.1285      0.9500      0.5000      0.9500      0.5000      0.0100           0
PAd             C                   500.0000      0.0000     60.4500    106.0071      1.0000      1.1803      0.9500      0.5000      0.9500      0.5000      0.0100           0
PAd             C                   500.0000      0.0000     60.4500    106.0071      1.0000      0.6051      0.9500      0.5000      0.9500      0.5000      0.0100           0
PAd             C                   500.0000      0.0000     60.4500    106.0071      1.0000      2.6555      0.9500      0.5000      0.9500      0.5000      0.0100           0
PAd             C                   500.0000      0.0000     60.4500    106.0071      1.0000      1.1531      0.9500      0.5000      0.9500      0.5000      0.0100           0
PAd             C                   500.0000      0.0000     60.4500    106.0071      1.0000      1.4059      0.9500      0.5000      0.9500      0.5000      0.0100           0
PAd             C                   500.0000      0.0000     60.4500    106.0071      1.0000      3.2105      0.9500      0.5000      0.9500      0.5000      0.0100           0
PAd             C                   500.0000      0.0000     60.4500    106.0071      1.0000      4.0933      0.9500      0.5000      0.9500      0.5000      0.0100           0
PAd             C                   500.0000      0.0000     60.4500    106.0071      1.0000      1.1382      0.9500      0.5000      0.9500      0.5000      0.0100           0
PAd             C                   500.0000      0.0000     60.4500    106.0071      1.0000      0.6300      0.9500      0.5000      0.9500      0.5000      0.0100           0
PAd             C                   500.0000      0.0000     60.4500    106.0071      1.0000      0.6028      0.9500      0.5000      0.9500      0.5000      0.0100           0
PAd             C                   500.0000      0.0000     60.4500    106.0071      1.0000      0.1352      0.9500      0.5000      0.9500      0.5000      0.0100           0
PAd             C                   500.0000      0.0000     60.4500    106.0071      1.0000      1.1724      0.9500      0.5000      0.9500      0.5000      0.0100           0
PAd             C                   500.0000      0.0000     60.4500    106.0071      1.0000      1.2514      0.9500      0.5000      0.9500      0.5000      0.0100           0
PAd             C                   500.0000      0.0000     60.4500    106.0071      1.0000      0.5844      0.9500      0.5000      0.9500      0.5000      0.0100           0
PAd             C                   500.0000      0.0000     60.4500    106.0071      1.0000      2.8984      0.9500      0.5000      0.9500      0.5000      0.0100           0
PAd             C                   500.0000      0.0000     60.4500    106.0071      1.0000      1.1539      0.9500      0.5000      0.9500      0.5000      0.0100           0
PAd             C                   500.0000      0.0000     60.4500    106.0071      1.0000      1.3455      0.9500      0.5000      0.9500      0.5000      0.0100           0
PAd             C                   500.0000      0.0000     60.4500    106.0071      1.0000      1.2987      0.9500      0.5000      0.9500      0.5000      0.0100           0
PAd             C                   500.0000      0.0000     60.4500    106.0071      1.0000      2.9551      0.9500      0.5000      0.9500      0.5000      0.0100           0
PAd             C                   500.0000      0.0000     60.4500    106.0071      1.0000      1.2611      0.9500      0.5000      0.9500      0.5000      0.0100           0
PAd             C                   500.0000      0.0000     60.4500    106.0071      1.0000      3.4361      0.9500      0.5000      0.9500      0.5000      0.0100           0
PAd             C                   500.0000      0.0000     60.4500    106.0071      1.0000      1.2927      0.9500      0.5000      0.9500      0.5000      0.0100           0
PAd             C                   500.0000      0.0000     60.4500    106.0071      1.0000      0.5774      0.9500      0.5000      0.9500      0.5000      0.0100           0
PAd             C                   500.0000      0.0000     60.4500    106.0071      1.0000      1.1391      0.9500      0.5000      0.9500      0.5000      0.0100           0
PAd             C                   500.0000      0.0000     60.4500    106.0071      1.0000      0.5656      0.9500      0.5000      0.9500      0.5000      0.0100           0
PAd             C                   500.0000      0.0000     60.4500    106.0071      1.0000      0.0663      0.9500      0.5000      0.9500      0.5000      0.0100           0
PAd             C                   500.0000      0.0000     60.4500    106.0071      1.0000      1.2217      0.9500      0.5000      0.9500      0.5000      0.0100           0
PAd             C                   500.0000      0.0000     60.4500    106.0071      1.0000      1.1981      0.9500      0.5000      0.9500      0.5000      0.0100           0
PAd             C                   500.0000      0.0000     60.4500    106.0071      1.0000      3.6784      0.9500      0.5000      0.9500      0.5000      0.0100           0
PAd             C                   500.0000      0.0000     60.4500    106.0071      1.0000      1.7428      0.9500      0.5000      0.9500      0.5000      0.0100           0
PAd             C                   500.0000      0.0000     60.4500    106.0071      1.0000      4.5676      0.9500      0.5000      0.9500      0.5000      0.0100           0
PAd             C                   500.0000      0.0000     60.4500    106.0071      1.0000      1.0029      0.9500      0.5000      0.9500      0.5000      0.0100           0
PAd             C                   500.0000      0.0000     60.4500    106.0071      1.0000      0.5951      0.9500      0.5000      0.9500      0.5000      0.0100           0
PAd             C                   500.0000      0.0000     60.4500    106.0071      1.0000      0.0841      0.9500      0.5000      0.9500      0.5000      0.0100           0
PAd             C                   500.0000      0.0000     60.4500    106.0071      1.0000      1.1469      0.9500      0.5000      0.9500      0.5000      0.0100           0
PAd             C                   500.0000      0.0000     60.4500    106.0071      1.0000      0.0663      0.9500      0.5000      0.9500      0.5000      0.0100           0
PAd             C                   500.0000      0.0000     60.4500    106.0071      1.0000      1.2167      0.9500      0.5000      0.9500      0.5000      0.0100           0
PAd             C                   500.0000      0.0000     60.4500    106.0071      1.0000      3.6142      0.9500      0.5000      0.9500      0.5000      0.0100           0
PAd             C                   500.0000      0.0000     60.4500    106.0071      0.7500      0.7773      0.9500      0.5000      0.9500      0.5000      0.0100           0
PAd             C                   500.0000      0.0000     60.4500    106.0071      1.0000      2.4385      0.9500      0.5000      0.9500      0.5000      0.0100           0
PAd             C                   500.0000      0.0000     60.4500    106.0071      1.0000      1.0829      0.9500      0.5000      0.9500      0.5000      0.0100           0
PAd             C                   500.0000      0.0000     60.4500    106.0071      1.0000      1.1770      0.9500      0.5000      0.9500      0.5000      0.0100           0
PAd             C                   500.0000      0.0000     60.4500    106.0071      1.0000      0.1044      0.9500      0.5000      0.9500      0.5000      0.0100           0
PAd             C                   500.0000      0.0000     60.4500    106.0071      1.0000      1.1247      0.9500      0.5000      0.9500      0.5000      0.0100           0
PAd             C                   500.0000      0.0000     60.4500    106.0071      1.0000      2.4854      0.9500      0.5000      0.9500      0.5000      0.0100           0
PAd             C                   500.0000      0.0000     60.4500    106.0071      1.0000      0.0663      0.9500      0.5000      0.9500      0.5000      0.0100           0
PAd             C                   500.0000      0.0000     60.4500    106.0071      1.0000      1.1988      0.9500      0.5000      0.9500      0.5000      0.0100           0
PAd             C                   500.0000      0.0000     60.4500    106.0071      1.0000      1.1778      0.9500      0.5000      0.9500      0.5000      0.0100           0
PAd             C                   500.0000      0.0000     60.4500    106.0071      1.0000      1.2374      0.9500      0.5000      0.9500      0.5000      0.0100           0
PAd             C                   500.0000      0.0000     60.4500    106.0071      0.7500      1.1983      0.9500      0.5000      0.9500      0.5000      0.0100           0
PAd             C                   500.0000      0.0000     60.4500    106.0071      1.0000      0.9965      0.9500      0.5000      0.9500      0.5000      0.0100           0
PAd             C                   500.0000      0.0000     60.4500    106.0071      1.0000      0.5958      0.9500      0.5000      0.9500      0.5000      0.0100           0
PAd             C                   500.0000      0.0000     60.4500    106.0071      1.0000      1.2596      0.9500      0.5000      0.9500      0.5000      0.0100           0
PAd             C                   500.0000      0.0000     60.4500    106.0071      1.0000      1.1839      0.9500      0.5000      0.9500      0.5000      0.0100           0
PAd             C                   500.0000      0.0000     60.4500    106.0071      1.0000      1.1866      0.9500      0.5000      0.9500      0.5000      0.0100           0
PAd             C                   500.0000      0.0000     60.4500    106.0071      1.0000      3.0553      0.9500      0.5000      0.9500      0.5000      0.0100           0
PAd             C                   500.0000      0.0000     60.4500    106.0071      0.7500      1.1416      0.9500      0.5000      0.9500      0.5000      0.0100           0
