print.prt: written by SWAT+ editor v2.3.1 on 2023-08-15 15:10 for SWAT+ rev.60.5.7
nyskip      day_start  yrc_start  day_end   yrc_end   interval  
3           0         1990      0         2019      1         
aa_int_cnt  
0           
csvout        dbout         cdfout        
n             n             n             
crop_yld      mgtout        hydcon        fdcout        
n             n             n             n             
objects                  daily       monthly        yearly         avann  
basin_wb                     n             n             n             y  
basin_nb                     n             n             n             n  
basin_ls                     n             n             n             n  
basin_pw                     n             n             n             y  
basin_aqu                    n             n             n             n  
basin_res                    n             n             n             n  
basin_cha                    n             n             n             n  
basin_sd_cha                 n             n             n             n  
basin_psc                    n             n             n             n  
region_wb                    n             n             n             n  
region_nb                    n             n             n             n  
region_ls                    n             n             n             n  
region_pw                    n             n             n             n  
region_aqu                   n             n             n             n  
region_res                   n             n             n             n  
region_sd_cha                n             n             n             n  
region_psc                   n             n             n             n  
water_allo                   n             n             n             n  
lsunit_wb                    n             n             n             n  
lsunit_nb                    n             n             n             n  
lsunit_ls                    n             n             n             n  
lsunit_pw                    n             n             n             n  
hru_wb                       n             n             n             n  
hru_nb                       n             n             n             n  
hru_ls                       n             n             n             n  
hru_pw                       n             n             n             n  
hru-lte_wb                   n             n             n             y  
hru-lte_nb                   n             n             n             n  
hru-lte_ls                   n             n             n             y  
hru-lte_pw                   n             n             n             n  
channel                      n             n             n             n  
channel_sd                   n             n             n             n  
aquifer                      n             n             n             n  
reservoir                    n             n             n             n  
recall                       n             n             n             n  
hyd                          n             n             n             n  
ru                           n             n             n             n  
pest                         n             n             y             y  
