                   SWAT+               
             Revision 61.0.2.11-205-g46159a2  
      Soil & Water Assessment Tool    
IntelLLVM (2025.1.1), 2025-07-14 14:23:30, Linux
    Program reading . . . executing


  Date of Sim   7/14/2025 Time  14:59:40
 reading from pet file                   Time  14:59:40
 reading from precipitation file         Time  14:59:40
 reading from temperature file           Time  14:59:40
 reading from solar radiation file       Time  14:59:40
 reading from relative humidity file     Time  14:59:40
 reading from wind file                  Time  14:59:40
 reading from wgn file                   Time  14:59:40
 reading from wx station file            Time  14:59:40
