                   SWAT+               
             Revision unknown  
      Soil & Water Assessment Tool    
GNU (13.3.0), 2025-09-09 20:02:46, Linux
    Program reading . . . executing

