                   SWAT+               
             Revision unknown  
      Soil & Water Assessment Tool    
GNU (13.3.0), 2025-11-18 22:17:48, Linux
    Program reading . . . executing

