                   SWAT+               
             Revision unknown  
      Soil & Water Assessment Tool    
GNU (13.3.0), 2025-08-31 20:20:41, Linux
    Program reading . . . executing

