                   SWAT+               
             Revision unknown  
      Soil & Water Assessment Tool    
GNU (13.3.0), 2025-11-19 22:59:29, Linux
    Program reading . . . executing

