                   SWAT+               
             Revision unknown  
      Soil & Water Assessment Tool    
GNU (13.3.0), 2025-08-31 23:04:32, Linux
    Program reading . . . executing


  Date of Sim   8/31/2025 Time  23: 6:30
 reading from pet file                   Time  23: 6:30
 reading from precipitation file         Time  23: 6:30
 reading from temperature file           Time  23: 6:30
 reading from solar radiation file       Time  23: 6:30
 reading from relative humidity file     Time  23: 6:30
 reading from wind file                  Time  23: 6:30
 reading from wgn file                   Time  23: 6:30
 reading from wx station file            Time  23: 6:30
