 ex1018                    SWAT+ 2025-11-19        MODULAR Rev 2025.61.0.2.5-552-ga4e85d8                 
                                        zmx       usle_k       sumfc       sumul      usle_p     usle_ls        esco        epco     cn3_swf       perco     latq_co   tiledrain 
 sname           hydgrp                 (mm)                    (mm)        (mm)                                                                                     0=notile;1=tile;
GYl             C                  1000.0000      0.0000    127.0000    234.5947      1.0000      5.9186      0.9500      0.5000      0.9500      0.5000      0.0100           0
GYl             C                  1000.0000      0.0000    127.0000    234.5947      1.0000      2.7808      0.9500      0.5000      0.9500      0.5000      0.0100           0
GYl             C                  1000.0000      0.0000    127.0000    234.5947      1.0000      1.3502      0.9500      0.5000      0.9500      0.5000      0.0100           0
GYl             C                  1000.0000      0.0000    127.0000    234.5947      1.0000      0.2819      0.9500      0.5000      0.9500      0.5000      0.0100           0
GYl             C                  1000.0000      0.0000    127.0000    234.5947      1.0000      0.7257      0.9500      0.5000      0.9500      0.5000      0.0100           0
GYk             C                  1000.0000      0.0000    133.0000    268.0970      1.0000      0.2010      0.9500      0.5000      0.9500      0.5000      0.0100           0
GYk             C                  1000.0000      0.0000    133.0000    268.0970      1.0000      0.6300      0.9500      0.5000      0.9500      0.5000      0.0100           0
GYl             C                  1000.0000      0.0000    127.0000    234.5947      1.0000      0.7118      0.9500      0.5000      0.9500      0.5000      0.0100           0
GYl             C                  1000.0000      0.0000    127.0000    234.5947      1.0000      0.2728      0.9500      0.5000      0.9500      0.5000      0.0100           0
GYl             C                  1000.0000      0.0000    127.0000    234.5947      1.0000      1.2704      0.9500      0.5000      0.9500      0.5000      0.0100           0
GYl             C                  1000.0000      0.0000    127.0000    234.5947      1.0000      2.7536      0.9500      0.5000      0.9500      0.5000      0.0100           0
GYl             C                  1000.0000      0.0000    127.0000    234.5947      1.0000      5.0032      0.9500      0.5000      0.9500      0.5000      0.0100           0
GYk             C                  1000.0000      0.0000    133.0000    268.0970      1.0000      0.2597      0.9500      0.5000      0.9500      0.5000      0.0100           0
GYk             C                  1000.0000      0.0000    133.0000    268.0970      1.0000      0.7258      0.9500      0.5000      0.9500      0.5000      0.0100           0
GYk             C                  1000.0000      0.0000    133.0000    268.0970      1.0000      1.2741      0.9500      0.5000      0.9500      0.5000      0.0100           0
GYk             C                  1000.0000      0.0000    133.0000    268.0970      1.0000      5.9550      0.9500      0.5000      0.9500      0.5000      0.0100           0
GYk             C                  1000.0000      0.0000    133.0000    268.0970      1.0000      2.5425      0.9500      0.5000      0.9500      0.5000      0.0100           0
CMc             C                  1000.0000      0.0000    130.0000    286.9376      1.0000      0.7084      0.9500      0.5000      0.9500      0.5000      0.0100           0
CMc             C                  1000.0000      0.0000    130.0000    286.9376      1.0000      0.2858      0.9500      0.5000      0.9500      0.5000      0.0100           0
CMc             C                  1000.0000      0.0000    130.0000    286.9376      1.0000      1.0597      0.9500      0.5000      0.9500      0.5000      0.0100           0
VRk             B                  1000.0000      0.0000    107.0000    219.0044      1.0000      0.2520      0.9500      0.5000      0.9500      0.9000      0.0100           0
VRk             B                  1000.0000      0.0000    107.0000    219.0044      1.0000      0.8613      0.9500      0.5000      0.9500      0.9000      0.0100           0
VRk             B                  1000.0000      0.0000    107.0000    219.0044      1.0000      1.3161      0.9500      0.5000      0.9500      0.9000      0.0100           0
VRk             B                  1000.0000      0.0000    107.0000    219.0044      1.0000      2.4495      0.9500      0.5000      0.9500      0.9000      0.0100           0
RGc             B                  1000.0000      0.0000    110.0000    278.3696      1.0000      0.3079      0.9500      0.5000      0.9500      0.9000      0.0100           0
RGc             B                  1000.0000      0.0000    110.0000    278.3696      1.0000      0.7666      0.9500      0.5000      0.9500      0.9000      0.0100           0
RGc             B                  1000.0000      0.0000    110.0000    278.3696      1.0000      1.2848      0.9500      0.5000      0.9500      0.9000      0.0100           0
RGc             B                  1000.0000      0.0000    110.0000    278.3696      1.0000      2.4390      0.9500      0.5000      0.9500      0.9000      0.0100           0
RGc             B                  1000.0000      0.0000    110.0000    278.3696      1.0000      3.9347      0.9500      0.5000      0.9500      0.9000      0.0100           0
RGc             B                  1000.0000      0.0000    110.0000    278.3696      1.0000      0.2075      0.9500      0.5000      0.9500      0.9000      0.0100           0
GYl             C                  1000.0000      0.0000    127.0000    234.5947      1.0000      0.7482      0.9500      0.5000      0.9500      0.5000      0.0100           0
GYl             C                  1000.0000      0.0000    127.0000    234.5947      1.0000      0.3048      0.9500      0.5000      0.9500      0.5000      0.0100           0
GYl             C                  1000.0000      0.0000    127.0000    234.5947      1.0000      1.3555      0.9500      0.5000      0.9500      0.5000      0.0100           0
GYl             C                  1000.0000      0.0000    127.0000    234.5947      1.0000      2.7444      0.9500      0.5000      0.9500      0.5000      0.0100           0
GYl             C                  1000.0000      0.0000    127.0000    234.5947      1.0000      5.5071      0.9500      0.5000      0.9500      0.5000      0.0100           0
CMc             C                  1000.0000      0.0000    130.0000    286.9376      1.0000      0.2897      0.9500      0.5000      0.9500      0.5000      0.0100           0
CMc             C                  1000.0000      0.0000    130.0000    286.9376      1.0000      0.7658      0.9500      0.5000      0.9500      0.5000      0.0100           0
VRk             B                  1000.0000      0.0000    107.0000    219.0044      1.0000      0.2683      0.9500      0.5000      0.9500      0.9000      0.0100           0
VRk             B                  1000.0000      0.0000    107.0000    219.0044      1.0000      0.7307      0.9500      0.5000      0.9500      0.9000      0.0100           0
VRk             B                  1000.0000      0.0000    107.0000    219.0044      1.0000      1.4340      0.9500      0.5000      0.9500      0.9000      0.0100           0
GYk             C                  1000.0000      0.0000    133.0000    268.0970      1.0000      0.7258      0.9500      0.5000      0.9500      0.5000      0.0100           0
GYk             C                  1000.0000      0.0000    133.0000    268.0970      1.0000      0.2928      0.9500      0.5000      0.9500      0.5000      0.0100           0
GYl             C                  1000.0000      0.0000    127.0000    234.5947      1.0000      0.8134      0.9500      0.5000      0.9500      0.5000      0.0100           0
GYl             C                  1000.0000      0.0000    127.0000    234.5947      1.0000      0.2877      0.9500      0.5000      0.9500      0.5000      0.0100           0
GYl             C                  1000.0000      0.0000    127.0000    234.5947      1.0000      1.3529      0.9500      0.5000      0.9500      0.5000      0.0100           0
GYl             C                  1000.0000      0.0000    127.0000    234.5947      1.0000      2.7081      0.9500      0.5000      0.9500      0.5000      0.0100           0
GYl             C                  1000.0000      0.0000    127.0000    234.5947      1.0000      5.3289      0.9500      0.5000      0.9500      0.5000      0.0100           0
GYk             C                  1000.0000      0.0000    133.0000    268.0970      1.0000      0.2505      0.9500      0.5000      0.9500      0.5000      0.0100           0
GYk             C                  1000.0000      0.0000    133.0000    268.0970      1.0000      0.7591      0.9500      0.5000      0.9500      0.5000      0.0100           0
GYk             C                  1000.0000      0.0000    133.0000    268.0970      1.0000      1.2805      0.9500      0.5000      0.9500      0.5000      0.0100           0
CMc             C                  1000.0000      0.0000    130.0000    286.9376      1.0000      0.5975      0.9500      0.5000      0.9500      0.5000      0.0100           0
CMc             C                  1000.0000      0.0000    130.0000    286.9376      1.0000      0.1154      0.9500      0.5000      0.9500      0.5000      0.0100           0
VRk             B                  1000.0000      0.0000    107.0000    219.0044      1.0000      0.8865      0.9500      0.5000      0.9500      0.9000      0.0100           0
VRk             B                  1000.0000      0.0000    107.0000    219.0044      1.0000      0.1417      0.9500      0.5000      0.9500      0.9000      0.0100           0
VRk             B                  1000.0000      0.0000    107.0000    219.0044      1.0000      1.2175      0.9500      0.5000      0.9500      0.9000      0.0100           0
GYl             C                  1000.0000      0.0000    127.0000    234.5947      1.0000      0.8777      0.9500      0.5000      0.9500      0.5000      0.0100           0
GYl             C                  1000.0000      0.0000    127.0000    234.5947      1.0000      0.2803      0.9500      0.5000      0.9500      0.5000      0.0100           0
GYl             C                  1000.0000      0.0000    127.0000    234.5947      1.0000      1.3717      0.9500      0.5000      0.9500      0.5000      0.0100           0
GYl             C                  1000.0000      0.0000    127.0000    234.5947      1.0000      2.7514      0.9500      0.5000      0.9500      0.5000      0.0100           0
GYl             C                  1000.0000      0.0000    127.0000    234.5947      1.0000      5.6799      0.9500      0.5000      0.9500      0.5000      0.0100           0
GYk             C                  1000.0000      0.0000    133.0000    268.0970      1.0000      0.8067      0.9500      0.5000      0.9500      0.5000      0.0100           0
GYk             C                  1000.0000      0.0000    133.0000    268.0970      1.0000      0.2712      0.9500      0.5000      0.9500      0.5000      0.0100           0
GYk             C                  1000.0000      0.0000    133.0000    268.0970      1.0000      5.7506      0.9500      0.5000      0.9500      0.5000      0.0100           0
GYk             C                  1000.0000      0.0000    133.0000    268.0970      1.0000      1.3694      0.9500      0.5000      0.9500      0.5000      0.0100           0
GYk             C                  1000.0000      0.0000    133.0000    268.0970      1.0000      2.7722      0.9500      0.5000      0.9500      0.5000      0.0100           0
LPe             D                   300.0000      0.0000     18.0000    109.6483      1.0000      0.7612      0.9500      0.5000      0.9500      0.0500      0.0100           0
LPe             D                   300.0000      0.0000     18.0000    109.6483      1.0000      1.2920      0.9500      0.5000      0.9500      0.0500      0.0100           0
LPe             D                   300.0000      0.0000     18.0000    109.6483      1.0000      0.2952      0.9500      0.5000      0.9500      0.0500      0.0100           0
LPe             D                   300.0000      0.0000     18.0000    109.6483      1.0000      5.3266      0.9500      0.5000      0.9500      0.0500      0.0100           0
LPe             D                   300.0000      0.0000     18.0000    109.6483      1.0000      2.5879      0.9500      0.5000      0.9500      0.0500      0.0100           0
RGc             B                  1000.0000      0.0000    110.0000    278.3696      1.0000      0.7517      0.9500      0.5000      0.9500      0.9000      0.0100           0
RGc             B                  1000.0000      0.0000    110.0000    278.3696      1.0000      0.2906      0.9500      0.5000      0.9500      0.9000      0.0100           0
RGc             B                  1000.0000      0.0000    110.0000    278.3696      1.0000      1.2304      0.9500      0.5000      0.9500      0.9000      0.0100           0
RGc             B                  1000.0000      0.0000    110.0000    278.3696      1.0000      2.6002      0.9500      0.5000      0.9500      0.9000      0.0100           0
GYk             C                  1000.0000      0.0000    133.0000    268.0970      0.7500      0.2636      0.9500      0.5000      0.9500      0.5000      0.0100           0
GYk             C                  1000.0000      0.0000    133.0000    268.0970      0.7500      0.7781      0.9500      0.5000      0.9500      0.5000      0.0100           0
GYk             C                  1000.0000      0.0000    133.0000    268.0970      0.7500      1.2250      0.9500      0.5000      0.9500      0.5000      0.0100           0
GYk             C                  1000.0000      0.0000    133.0000    268.0970      0.7500      2.3383      0.9500      0.5000      0.9500      0.5000      0.0100           0
GYl             C                  1000.0000      0.0000    127.0000    234.5947      1.0000      0.7156      0.9500      0.5000      0.9500      0.5000      0.0100           0
GYl             C                  1000.0000      0.0000    127.0000    234.5947      1.0000      0.2945      0.9500      0.5000      0.9500      0.5000      0.0100           0
GYl             C                  1000.0000      0.0000    127.0000    234.5947      1.0000      1.3327      0.9500      0.5000      0.9500      0.5000      0.0100           0
GYl             C                  1000.0000      0.0000    127.0000    234.5947      1.0000      2.7540      0.9500      0.5000      0.9500      0.5000      0.0100           0
GYl             C                  1000.0000      0.0000    127.0000    234.5947      1.0000      5.3373      0.9500      0.5000      0.9500      0.5000      0.0100           0
GYk             C                  1000.0000      0.0000    133.0000    268.0970      1.0000      0.2600      0.9500      0.5000      0.9500      0.5000      0.0100           0
GYk             C                  1000.0000      0.0000    133.0000    268.0970      1.0000      0.6404      0.9500      0.5000      0.9500      0.5000      0.0100           0
GYk             C                  1000.0000      0.0000    133.0000    268.0970      1.0000      2.8337      0.9500      0.5000      0.9500      0.5000      0.0100           0
GYk             C                  1000.0000      0.0000    133.0000    268.0970      1.0000      1.2429      0.9500      0.5000      0.9500      0.5000      0.0100           0
FLs             B                  1000.0000      0.0000    133.0000    294.2278      1.0000      0.3130      0.9500      0.5000      0.9500      0.9000      0.0100           0
FLs             B                  1000.0000      0.0000    133.0000    294.2278      1.0000      0.5785      0.9500      0.5000      0.9500      0.9000      0.0100           0
RGc             B                  1000.0000      0.0000    110.0000    278.3696      1.0000      0.7493      0.9500      0.5000      0.9500      0.9000      0.0100           0
RGc             B                  1000.0000      0.0000    110.0000    278.3696      1.0000      0.3047      0.9500      0.5000      0.9500      0.9000      0.0100           0
RGc             B                  1000.0000      0.0000    110.0000    278.3696      1.0000      1.4001      0.9500      0.5000      0.9500      0.9000      0.0100           0
RGc             B                  1000.0000      0.0000    110.0000    278.3696      1.0000      2.8025      0.9500      0.5000      0.9500      0.9000      0.0100           0
RGc             B                  1000.0000      0.0000    110.0000    278.3696      1.0000      5.3229      0.9500      0.5000      0.9500      0.9000      0.0100           0
GYl             C                  1000.0000      0.0000    127.0000    234.5947      0.7500      0.7274      0.9500      0.5000      0.9500      0.5000      0.0100           0
GYl             C                  1000.0000      0.0000    127.0000    234.5947      0.7500      0.2920      0.9500      0.5000      0.9500      0.5000      0.0100           0
GYk             C                  1000.0000      0.0000    133.0000    268.0970      0.7500      0.3645      0.9500      0.5000      0.9500      0.5000      0.0100           0
GYk             C                  1000.0000      0.0000    133.0000    268.0970      0.7500      0.6593      0.9500      0.5000      0.9500      0.5000      0.0100           0
GYl             C                  1000.0000      0.0000    127.0000    234.5947      1.0000      0.2239      0.9500      0.5000      0.9500      0.5000      0.0100           0
GYl             C                  1000.0000      0.0000    127.0000    234.5947      1.0000      0.7175      0.9500      0.5000      0.9500      0.5000      0.0100           0
GYl             C                  1000.0000      0.0000    127.0000    234.5947      1.0000      1.7133      0.9500      0.5000      0.9500      0.5000      0.0100           0
GYl             C                  1000.0000      0.0000    127.0000    234.5947      1.0000      0.3956      0.9500      0.5000      0.9500      0.5000      0.0100           0
GYl             C                  1000.0000      0.0000    127.0000    234.5947      1.0000      0.5585      0.9500      0.5000      0.9500      0.5000      0.0100           0
GYl             C                  1000.0000      0.0000    127.0000    234.5947      1.0000      4.7476      0.9500      0.5000      0.9500      0.5000      0.0100           0
GYl             C                  1000.0000      0.0000    127.0000    234.5947      1.0000      0.8336      0.9500      0.5000      0.9500      0.5000      0.0100           0
GYl             C                  1000.0000      0.0000    127.0000    234.5947      1.0000      2.7481      0.9500      0.5000      0.9500      0.5000      0.0100           0
GYl             C                  1000.0000      0.0000    127.0000    234.5947      1.0000      1.3912      0.9500      0.5000      0.9500      0.5000      0.0100           0
GYl             C                  1000.0000      0.0000    127.0000    234.5947      1.0000      0.2718      0.9500      0.5000      0.9500      0.5000      0.0100           0
VRk             B                  1000.0000      0.0000    107.0000    219.0044      1.0000      0.2438      0.9500      0.5000      0.9500      0.9000      0.0100           0
VRk             B                  1000.0000      0.0000    107.0000    219.0044      1.0000      0.7286      0.9500      0.5000      0.9500      0.9000      0.0100           0
VRk             B                  1000.0000      0.0000    107.0000    219.0044      1.0000      1.0095      0.9500      0.5000      0.9500      0.9000      0.0100           0
GYk             C                  1000.0000      0.0000    133.0000    268.0970      1.0000      0.2802      0.9500      0.5000      0.9500      0.5000      0.0100           0
GYk             C                  1000.0000      0.0000    133.0000    268.0970      1.0000      0.7237      0.9500      0.5000      0.9500      0.5000      0.0100           0
GYk             C                  1000.0000      0.0000    133.0000    268.0970      1.0000      1.0095      0.9500      0.5000      0.9500      0.5000      0.0100           0
GYl             C                  1000.0000      0.0000    127.0000    234.5947      1.0000      0.7534      0.9500      0.5000      0.9500      0.5000      0.0100           0
GYl             C                  1000.0000      0.0000    127.0000    234.5947      1.0000      1.2896      0.9500      0.5000      0.9500      0.5000      0.0100           0
GYl             C                  1000.0000      0.0000    127.0000    234.5947      1.0000      0.2861      0.9500      0.5000      0.9500      0.5000      0.0100           0
GYl             C                  1000.0000      0.0000    127.0000    234.5947      1.0000      2.7042      0.9500      0.5000      0.9500      0.5000      0.0100           0
GYl             C                  1000.0000      0.0000    127.0000    234.5947      1.0000      4.7261      0.9500      0.5000      0.9500      0.5000      0.0100           0
GYk             C                  1000.0000      0.0000    133.0000    268.0970      1.0000      0.2968      0.9500      0.5000      0.9500      0.5000      0.0100           0
GYk             C                  1000.0000      0.0000    133.0000    268.0970      1.0000      0.7594      0.9500      0.5000      0.9500      0.5000      0.0100           0
GYk             C                  1000.0000      0.0000    133.0000    268.0970      1.0000      1.2804      0.9500      0.5000      0.9500      0.5000      0.0100           0
GYk             C                  1000.0000      0.0000    133.0000    268.0970      1.0000      2.7744      0.9500      0.5000      0.9500      0.5000      0.0100           0
GYk             C                  1000.0000      0.0000    133.0000    268.0970      1.0000      6.3342      0.9500      0.5000      0.9500      0.5000      0.0100           0
RGc             B                  1000.0000      0.0000    110.0000    278.3696      1.0000      0.7240      0.9500      0.5000      0.9500      0.9000      0.0100           0
RGc             B                  1000.0000      0.0000    110.0000    278.3696      1.0000      0.3001      0.9500      0.5000      0.9500      0.9000      0.0100           0
RGc             B                  1000.0000      0.0000    110.0000    278.3696      1.0000      2.5242      0.9500      0.5000      0.9500      0.9000      0.0100           0
RGc             B                  1000.0000      0.0000    110.0000    278.3696      1.0000      1.2576      0.9500      0.5000      0.9500      0.9000      0.0100           0
SCk             C                  1000.0000      0.0000    133.0000    270.4376      1.0000      0.2539      0.9500      0.5000      0.9500      0.5000      0.0100           0
SCk             C                  1000.0000      0.0000    133.0000    270.4376      1.0000      0.5697      0.9500      0.5000      0.9500      0.5000      0.0100           0
GYk             C                  1000.0000      0.0000    133.0000    268.0970      1.0000      0.3102      0.9500      0.5000      0.9500      0.5000      0.0100           0
GYk             C                  1000.0000      0.0000    133.0000    268.0970      1.0000      0.5987      0.9500      0.5000      0.9500      0.5000      0.0100           0
GYk             C                  1000.0000      0.0000    133.0000    268.0970      0.7500      0.7678      0.9500      0.5000      0.9500      0.5000      0.0100           0
GYk             C                  1000.0000      0.0000    133.0000    268.0970      0.7500      0.2866      0.9500      0.5000      0.9500      0.5000      0.0100           0
GYk             C                  1000.0000      0.0000    133.0000    268.0970      0.7500      1.2382      0.9500      0.5000      0.9500      0.5000      0.0100           0
GYk             C                  1000.0000      0.0000    133.0000    268.0970      0.7500      3.3247      0.9500      0.5000      0.9500      0.5000      0.0100           0
GYl             C                  1000.0000      0.0000    127.0000    234.5947      0.7500      0.1810      0.9500      0.5000      0.9500      0.5000      0.0100           0
GYk             C                  1000.0000      0.0000    133.0000    268.0970      1.0000      0.2413      0.9500      0.5000      0.9500      0.5000      0.0100           0
GYk             C                  1000.0000      0.0000    133.0000    268.0970      1.0000      0.5580      0.9500      0.5000      0.9500      0.5000      0.0100           0
GYl             C                  1000.0000      0.0000    127.0000    234.5947      1.0000      0.2298      0.9500      0.5000      0.9500      0.5000      0.0100           0
GYl             C                  1000.0000      0.0000    127.0000    234.5947      1.0000      0.5868      0.9500      0.5000      0.9500      0.5000      0.0100           0
GYk             C                  1000.0000      0.0000    133.0000    268.0970      1.0000      0.2981      0.9500      0.5000      0.9500      0.5000      0.0100           0
GYk             C                  1000.0000      0.0000    133.0000    268.0970      1.0000      0.7272      0.9500      0.5000      0.9500      0.5000      0.0100           0
GYk             C                  1000.0000      0.0000    133.0000    268.0970      1.0000      1.2661      0.9500      0.5000      0.9500      0.5000      0.0100           0
GYk             C                  1000.0000      0.0000    133.0000    268.0970      1.0000      4.3488      0.9500      0.5000      0.9500      0.5000      0.0100           0
GYk             C                  1000.0000      0.0000    133.0000    268.0970      1.0000      2.4921      0.9500      0.5000      0.9500      0.5000      0.0100           0
GYl             C                  1000.0000      0.0000    127.0000    234.5947      1.0000      0.7155      0.9500      0.5000      0.9500      0.5000      0.0100           0
GYl             C                  1000.0000      0.0000    127.0000    234.5947      1.0000      0.2999      0.9500      0.5000      0.9500      0.5000      0.0100           0
GYl             C                  1000.0000      0.0000    127.0000    234.5947      1.0000      1.3228      0.9500      0.5000      0.9500      0.5000      0.0100           0
GYl             C                  1000.0000      0.0000    127.0000    234.5947      1.0000      2.8898      0.9500      0.5000      0.9500      0.5000      0.0100           0
GYl             C                  1000.0000      0.0000    127.0000    234.5947      1.0000      5.9565      0.9500      0.5000      0.9500      0.5000      0.0100           0
RGc             B                  1000.0000      0.0000    110.0000    278.3696      1.0000      0.7313      0.9500      0.5000      0.9500      0.9000      0.0100           0
RGc             B                  1000.0000      0.0000    110.0000    278.3696      1.0000      0.3082      0.9500      0.5000      0.9500      0.9000      0.0100           0
RGc             B                  1000.0000      0.0000    110.0000    278.3696      1.0000      1.3714      0.9500      0.5000      0.9500      0.9000      0.0100           0
RGc             B                  1000.0000      0.0000    110.0000    278.3696      1.0000      2.7834      0.9500      0.5000      0.9500      0.9000      0.0100           0
RGc             B                  1000.0000      0.0000    110.0000    278.3696      1.0000      5.5369      0.9500      0.5000      0.9500      0.9000      0.0100           0
FLs             B                  1000.0000      0.0000    133.0000    294.2278      1.0000      0.2676      0.9500      0.5000      0.9500      0.9000      0.0100           0
FLs             B                  1000.0000      0.0000    133.0000    294.2278      1.0000      0.6079      0.9500      0.5000      0.9500      0.9000      0.0100           0
LPe             D                   300.0000      0.0000     18.0000    109.6483      1.0000      0.3168      0.9500      0.5000      0.9500      0.0500      0.0100           0
LPe             D                   300.0000      0.0000     18.0000    109.6483      1.0000      0.8028      0.9500      0.5000      0.9500      0.0500      0.0100           0
LPe             D                   300.0000      0.0000     18.0000    109.6483      1.0000      1.1063      0.9500      0.5000      0.9500      0.0500      0.0100           0
SCk             C                  1000.0000      0.0000    133.0000    270.4376      1.0000      0.6614      0.9500      0.5000      0.9500      0.5000      0.0100           0
SCk             C                  1000.0000      0.0000    133.0000    270.4376      1.0000      0.3180      0.9500      0.5000      0.9500      0.5000      0.0100           0
GYk             C                  1000.0000      0.0000    133.0000    268.0970      0.7500      0.2790      0.9500      0.5000      0.9500      0.5000      0.0100           0
GYk             C                  1000.0000      0.0000    133.0000    268.0970      0.7500      0.7085      0.9500      0.5000      0.9500      0.5000      0.0100           0
GYl             C                  1000.0000      0.0000    127.0000    234.5947      0.7500      0.3346      0.9500      0.5000      0.9500      0.5000      0.0100           0
GYl             C                  1000.0000      0.0000    127.0000    234.5947      0.7500      0.6866      0.9500      0.5000      0.9500      0.5000      0.0100           0
GYl             C                  1000.0000      0.0000    127.0000    234.5947      0.7500      1.3060      0.9500      0.5000      0.9500      0.5000      0.0100           0
FLs             B                  1000.0000      0.0000    133.0000    294.2278      0.7500      0.3039      0.9500      0.5000      0.9500      0.9000      0.0100           0
FLs             B                  1000.0000      0.0000    133.0000    294.2278      0.7500      0.7323      0.9500      0.5000      0.9500      0.9000      0.0100           0
RGc             B                  1000.0000      0.0000    110.0000    278.3696      0.7500      0.3547      0.9500      0.5000      0.9500      0.9000      0.0100           0
RGc             B                  1000.0000      0.0000    110.0000    278.3696      0.7500      0.5929      0.9500      0.5000      0.9500      0.9000      0.0100           0
GYl             C                  1000.0000      0.0000    127.0000    234.5947      1.0000      0.2934      0.9500      0.5000      0.9500      0.5000      0.0100           0
GYl             C                  1000.0000      0.0000    127.0000    234.5947      1.0000      0.7361      0.9500      0.5000      0.9500      0.5000      0.0100           0
GYl             C                  1000.0000      0.0000    127.0000    234.5947      1.0000      1.6037      0.9500      0.5000      0.9500      0.5000      0.0100           0
GYk             C                  1000.0000      0.0000    133.0000    268.0970      1.0000      0.6402      0.9500      0.5000      0.9500      0.5000      0.0100           0
GYk             C                  1000.0000      0.0000    133.0000    268.0970      1.0000      0.2630      0.9500      0.5000      0.9500      0.5000      0.0100           0
GYl             C                  1000.0000      0.0000    127.0000    234.5947      1.0000      0.2562      0.9500      0.5000      0.9500      0.5000      0.0100           0
GYk             C                  1000.0000      0.0000    133.0000    268.0970      1.0000      0.0719      0.9500      0.5000      0.9500      0.5000      0.0100           0
GYl             C                  1000.0000      0.0000    127.0000    234.5947      1.0000      0.4457      0.9500      0.5000      0.9500      0.5000      0.0100           0
GYl             C                  1000.0000      0.0000    127.0000    234.5947      1.0000      0.7094      0.9500      0.5000      0.9500      0.5000      0.0100           0
GYk             C                  1000.0000      0.0000    133.0000    268.0970      1.0000      0.1836      0.9500      0.5000      0.9500      0.5000      0.0100           0
GYk             C                  1000.0000      0.0000    133.0000    268.0970      1.0000      0.2594      0.9500      0.5000      0.9500      0.5000      0.0100           0
GYk             C                  1000.0000      0.0000    133.0000    268.0970      1.0000      0.5694      0.9500      0.5000      0.9500      0.5000      0.0100           0
GYl             C                  1000.0000      0.0000    127.0000    234.5947      1.0000      0.2733      0.9500      0.5000      0.9500      0.5000      0.0100           0
GYl             C                  1000.0000      0.0000    127.0000    234.5947      1.0000      0.6276      0.9500      0.5000      0.9500      0.5000      0.0100           0
GYl             C                  1000.0000      0.0000    127.0000    234.5947      1.0000      1.2052      0.9500      0.5000      0.9500      0.5000      0.0100           0
GYl             C                  1000.0000      0.0000    127.0000    234.5947      1.0000      2.6395      0.9500      0.5000      0.9500      0.5000      0.0100           0
GYl             C                  1000.0000      0.0000    127.0000    234.5947      1.0000      6.0742      0.9500      0.5000      0.9500      0.5000      0.0100           0
RGc             B                  1000.0000      0.0000    110.0000    278.3696      1.0000      0.2874      0.9500      0.5000      0.9500      0.9000      0.0100           0
RGc             B                  1000.0000      0.0000    110.0000    278.3696      1.0000      0.6992      0.9500      0.5000      0.9500      0.9000      0.0100           0
RGc             B                  1000.0000      0.0000    110.0000    278.3696      1.0000      1.4044      0.9500      0.5000      0.9500      0.9000      0.0100           0
RGc             B                  1000.0000      0.0000    110.0000    278.3696      1.0000      2.8173      0.9500      0.5000      0.9500      0.9000      0.0100           0
RGc             B                  1000.0000      0.0000    110.0000    278.3696      1.0000      4.8797      0.9500      0.5000      0.9500      0.9000      0.0100           0
GYl             C                  1000.0000      0.0000    127.0000    234.5947      0.7500      0.2949      0.9500      0.5000      0.9500      0.5000      0.0100           0
GYl             C                  1000.0000      0.0000    127.0000    234.5947      0.7500      0.6404      0.9500      0.5000      0.9500      0.5000      0.0100           0
RGc             B                  1000.0000      0.0000    110.0000    278.3696      1.0000      0.2421      0.9500      0.5000      0.9500      0.9000      0.0100           0
RGc             B                  1000.0000      0.0000    110.0000    278.3696      1.0000      0.5433      0.9500      0.5000      0.9500      0.9000      0.0100           0
GYl             C                  1000.0000      0.0000    127.0000    234.5947      1.0000      0.6730      0.9500      0.5000      0.9500      0.5000      0.0100           0
GYl             C                  1000.0000      0.0000    127.0000    234.5947      1.0000      0.4156      0.9500      0.5000      0.9500      0.5000      0.0100           0
VRk             B                  1000.0000      0.0000    107.0000    219.0044      1.0000      0.2895      0.9500      0.5000      0.9500      0.9000      0.0100           0
VRk             B                  1000.0000      0.0000    107.0000    219.0044      1.0000      0.7658      0.9500      0.5000      0.9500      0.9000      0.0100           0
VRk             B                  1000.0000      0.0000    107.0000    219.0044      1.0000      1.2433      0.9500      0.5000      0.9500      0.9000      0.0100           0
VRk             B                  1000.0000      0.0000    107.0000    219.0044      1.0000      2.9939      0.9500      0.5000      0.9500      0.9000      0.0100           0
GYk             C                  1000.0000      0.0000    133.0000    268.0970      1.0000      0.8209      0.9500      0.5000      0.9500      0.5000      0.0100           0
GYk             C                  1000.0000      0.0000    133.0000    268.0970      1.0000      0.2486      0.9500      0.5000      0.9500      0.5000      0.0100           0
GYk             C                  1000.0000      0.0000    133.0000    268.0970      1.0000      2.5200      0.9500      0.5000      0.9500      0.5000      0.0100           0
GYk             C                  1000.0000      0.0000    133.0000    268.0970      1.0000      4.5809      0.9500      0.5000      0.9500      0.5000      0.0100           0
GYk             C                  1000.0000      0.0000    133.0000    268.0970      1.0000      1.3505      0.9500      0.5000      0.9500      0.5000      0.0100           0
RGc             B                  1000.0000      0.0000    110.0000    278.3696      1.0000      0.7407      0.9500      0.5000      0.9500      0.9000      0.0100           0
RGc             B                  1000.0000      0.0000    110.0000    278.3696      1.0000      0.2828      0.9500      0.5000      0.9500      0.9000      0.0100           0
RGc             B                  1000.0000      0.0000    110.0000    278.3696      1.0000      1.2729      0.9500      0.5000      0.9500      0.9000      0.0100           0
RGc             B                  1000.0000      0.0000    110.0000    278.3696      1.0000      2.3903      0.9500      0.5000      0.9500      0.9000      0.0100           0
GYl             C                  1000.0000      0.0000    127.0000    234.5947      1.0000      0.6500      0.9500      0.5000      0.9500      0.5000      0.0100           0
GYl             C                  1000.0000      0.0000    127.0000    234.5947      1.0000      0.3288      0.9500      0.5000      0.9500      0.5000      0.0100           0
GYk             C                  1000.0000      0.0000    133.0000    268.0970      1.0000      0.8288      0.9500      0.5000      0.9500      0.5000      0.0100           0
GYk             C                  1000.0000      0.0000    133.0000    268.0970      1.0000      0.2666      0.9500      0.5000      0.9500      0.5000      0.0100           0
GYk             C                  1000.0000      0.0000    133.0000    268.0970      1.0000      1.3112      0.9500      0.5000      0.9500      0.5000      0.0100           0
GYk             C                  1000.0000      0.0000    133.0000    268.0970      1.0000      2.6726      0.9500      0.5000      0.9500      0.5000      0.0100           0
GYk             C                  1000.0000      0.0000    133.0000    268.0970      1.0000      4.7399      0.9500      0.5000      0.9500      0.5000      0.0100           0
VRk             B                  1000.0000      0.0000    107.0000    219.0044      1.0000      0.2335      0.9500      0.5000      0.9500      0.9000      0.0100           0
VRk             B                  1000.0000      0.0000    107.0000    219.0044      1.0000      0.8391      0.9500      0.5000      0.9500      0.9000      0.0100           0
VRk             B                  1000.0000      0.0000    107.0000    219.0044      1.0000      8.0417      0.9500      0.5000      0.9500      0.9000      0.0100           0
VRk             B                  1000.0000      0.0000    107.0000    219.0044      1.0000      1.4272      0.9500      0.5000      0.9500      0.9000      0.0100           0
VRk             B                  1000.0000      0.0000    107.0000    219.0044      1.0000      2.7549      0.9500      0.5000      0.9500      0.9000      0.0100           0
LPe             D                   300.0000      0.0000     18.0000    109.6483      1.0000      0.2568      0.9500      0.5000      0.9500      0.0500      0.0100           0
LPe             D                   300.0000      0.0000     18.0000    109.6483      1.0000      0.7934      0.9500      0.5000      0.9500      0.0500      0.0100           0
LPe             D                   300.0000      0.0000     18.0000    109.6483      1.0000      1.4259      0.9500      0.5000      0.9500      0.0500      0.0100           0
RGc             B                  1000.0000      0.0000    110.0000    278.3696      1.0000      0.2760      0.9500      0.5000      0.9500      0.9000      0.0100           0
RGc             B                  1000.0000      0.0000    110.0000    278.3696      1.0000      0.6663      0.9500      0.5000      0.9500      0.9000      0.0100           0
RGc             B                  1000.0000      0.0000    110.0000    278.3696      1.0000      2.5571      0.9500      0.5000      0.9500      0.9000      0.0100           0
RGc             B                  1000.0000      0.0000    110.0000    278.3696      1.0000      3.7565      0.9500      0.5000      0.9500      0.9000      0.0100           0
RGc             B                  1000.0000      0.0000    110.0000    278.3696      1.0000      1.3289      0.9500      0.5000      0.9500      0.9000      0.0100           0
GYl             C                  1000.0000      0.0000    127.0000    234.5947      1.0000      0.2854      0.9500      0.5000      0.9500      0.5000      0.0100           0
GYl             C                  1000.0000      0.0000    127.0000    234.5947      1.0000      0.7438      0.9500      0.5000      0.9500      0.5000      0.0100           0
GYl             C                  1000.0000      0.0000    127.0000    234.5947      1.0000      1.2934      0.9500      0.5000      0.9500      0.5000      0.0100           0
GYl             C                  1000.0000      0.0000    127.0000    234.5947      1.0000      2.7708      0.9500      0.5000      0.9500      0.5000      0.0100           0
GYl             C                  1000.0000      0.0000    127.0000    234.5947      1.0000      5.1382      0.9500      0.5000      0.9500      0.5000      0.0100           0
SCk             C                  1000.0000      0.0000    133.0000    270.4376      1.0000      0.2670      0.9500      0.5000      0.9500      0.5000      0.0100           0
SCk             C                  1000.0000      0.0000    133.0000    270.4376      1.0000      0.7161      0.9500      0.5000      0.9500      0.5000      0.0100           0
GYl             C                  1000.0000      0.0000    127.0000    234.5947      0.7500      0.1848      0.9500      0.5000      0.9500      0.5000      0.0100           0
RGc             B                  1000.0000      0.0000    110.0000    278.3696      0.7500      0.2761      0.9500      0.5000      0.9500      0.9000      0.0100           0
RGc             B                  1000.0000      0.0000    110.0000    278.3696      0.7500      0.6319      0.9500      0.5000      0.9500      0.9000      0.0100           0
CLl             D                   300.0000      0.0000     33.0000     75.1641      1.0000      0.8856      0.9500      0.5000      0.9500      0.0500      0.0100           0
CLl             D                   300.0000      0.0000     33.0000     75.1641      1.0000      1.3574      0.9500      0.5000      0.9500      0.0500      0.0100           0
CLl             D                   300.0000      0.0000     33.0000     75.1641      1.0000      0.3010      0.9500      0.5000      0.9500      0.0500      0.0100           0
CLl             D                   300.0000      0.0000     33.0000     75.1641      1.0000      2.6493      0.9500      0.5000      0.9500      0.0500      0.0100           0
CLl             D                   300.0000      0.0000     33.0000     75.1641      1.0000      5.1271      0.9500      0.5000      0.9500      0.0500      0.0100           0
GYl             C                  1000.0000      0.0000    127.0000    234.5947      1.0000      0.7999      0.9500      0.5000      0.9500      0.5000      0.0100           0
GYl             C                  1000.0000      0.0000    127.0000    234.5947      1.0000      1.3614      0.9500      0.5000      0.9500      0.5000      0.0100           0
GYl             C                  1000.0000      0.0000    127.0000    234.5947      1.0000      0.2887      0.9500      0.5000      0.9500      0.5000      0.0100           0
GYl             C                  1000.0000      0.0000    127.0000    234.5947      1.0000      2.6734      0.9500      0.5000      0.9500      0.5000      0.0100           0
GYl             C                  1000.0000      0.0000    127.0000    234.5947      1.0000      4.7740      0.9500      0.5000      0.9500      0.5000      0.0100           0
GYk             C                  1000.0000      0.0000    133.0000    268.0970      1.0000      0.7575      0.9500      0.5000      0.9500      0.5000      0.0100           0
GYk             C                  1000.0000      0.0000    133.0000    268.0970      1.0000      0.2895      0.9500      0.5000      0.9500      0.5000      0.0100           0
GYk             C                  1000.0000      0.0000    133.0000    268.0970      1.0000      1.1828      0.9500      0.5000      0.9500      0.5000      0.0100           0
LPe             D                   300.0000      0.0000     18.0000    109.6483      1.0000      0.6433      0.9500      0.5000      0.9500      0.0500      0.0100           0
LPe             D                   300.0000      0.0000     18.0000    109.6483      1.0000      0.3743      0.9500      0.5000      0.9500      0.0500      0.0100           0
RGc             B                  1000.0000      0.0000    110.0000    278.3696      1.0000      0.3453      0.9500      0.5000      0.9500      0.9000      0.0100           0
RGc             B                  1000.0000      0.0000    110.0000    278.3696      1.0000      0.6228      0.9500      0.5000      0.9500      0.9000      0.0100           0
RGc             B                  1000.0000      0.0000    110.0000    278.3696      1.0000      1.3561      0.9500      0.5000      0.9500      0.9000      0.0100           0
GYk             C                  1000.0000      0.0000    133.0000    268.0970      0.7500      0.3446      0.9500      0.5000      0.9500      0.5000      0.0100           0
GYk             C                  1000.0000      0.0000    133.0000    268.0970      0.7500      0.8729      0.9500      0.5000      0.9500      0.5000      0.0100           0
CLl             D                   300.0000      0.0000     33.0000     75.1641      1.0000      1.4260      0.9500      0.5000      0.9500      0.0500      0.0100           0
CLl             D                   300.0000      0.0000     33.0000     75.1641      1.0000      0.8589      0.9500      0.5000      0.9500      0.0500      0.0100           0
CLl             D                   300.0000      0.0000     33.0000     75.1641      1.0000      0.3039      0.9500      0.5000      0.9500      0.0500      0.0100           0
CLl             D                   300.0000      0.0000     33.0000     75.1641      1.0000      2.8141      0.9500      0.5000      0.9500      0.0500      0.0100           0
CLl             D                   300.0000      0.0000     33.0000     75.1641      1.0000      5.8756      0.9500      0.5000      0.9500      0.0500      0.0100           0
GYl             C                  1000.0000      0.0000    127.0000    234.5947      1.0000      0.7640      0.9500      0.5000      0.9500      0.5000      0.0100           0
GYl             C                  1000.0000      0.0000    127.0000    234.5947      1.0000      0.2706      0.9500      0.5000      0.9500      0.5000      0.0100           0
GYl             C                  1000.0000      0.0000    127.0000    234.5947      1.0000      1.3301      0.9500      0.5000      0.9500      0.5000      0.0100           0
GYl             C                  1000.0000      0.0000    127.0000    234.5947      1.0000      2.5491      0.9500      0.5000      0.9500      0.5000      0.0100           0
GYl             C                  1000.0000      0.0000    127.0000    234.5947      1.0000      4.2499      0.9500      0.5000      0.9500      0.5000      0.0100           0
GYk             C                  1000.0000      0.0000    133.0000    268.0970      1.0000      0.2377      0.9500      0.5000      0.9500      0.5000      0.0100           0
GYk             C                  1000.0000      0.0000    133.0000    268.0970      1.0000      0.6407      0.9500      0.5000      0.9500      0.5000      0.0100           0
GYk             C                  1000.0000      0.0000    133.0000    268.0970      1.0000      1.3985      0.9500      0.5000      0.9500      0.5000      0.0100           0
GYk             C                  1000.0000      0.0000    133.0000    268.0970      1.0000      2.6155      0.9500      0.5000      0.9500      0.5000      0.0100           0
GYk             C                  1000.0000      0.0000    133.0000    268.0970      1.0000      4.4162      0.9500      0.5000      0.9500      0.5000      0.0100           0
ARh             A                  1000.0000      0.0000     40.0000    382.1385      1.0000      0.2564      0.9500      0.5000      0.9500      0.9000      0.0100           0
ARh             A                  1000.0000      0.0000     40.0000    382.1385      1.0000      0.6078      0.9500      0.5000      0.9500      0.9000      0.0100           0
ARh             A                  1000.0000      0.0000     40.0000    382.1385      1.0000      1.1111      0.9500      0.5000      0.9500      0.9000      0.0100           0
SCm             C                  1000.0000      0.0000    133.0000    249.4741      1.0000      0.1906      0.9500      0.5000      0.9500      0.5000      0.0100           0
SCm             C                  1000.0000      0.0000    133.0000    249.4741      1.0000      0.6137      0.9500      0.5000      0.9500      0.5000      0.0100           0
GYl             C                  1000.0000      0.0000    127.0000    234.5947      1.0000      0.1774      0.9500      0.5000      0.9500      0.0500      0.0100           0
GYl             C                  1000.0000      0.0000    127.0000    234.5947      1.0000      0.6717      0.9500      0.5000      0.9500      0.0500      0.0100           0
GYl             C                  1000.0000      0.0000    127.0000    234.5947      1.0000      0.0711      0.9500      0.5000      0.9500      0.0500      0.0100           0
SCm             C                  1000.0000      0.0000    133.0000    249.4741      1.0000      0.0722      0.9500      0.5000      0.9500      0.5000      0.0100           0
CLl             D                   300.0000      0.0000     33.0000     75.1641      1.0000      0.8610      0.9500      0.5000      0.9500      0.0500      0.0100           0
CLl             D                   300.0000      0.0000     33.0000     75.1641      1.0000      0.3303      0.9500      0.5000      0.9500      0.0500      0.0100           0
CLl             D                   300.0000      0.0000     33.0000     75.1641      1.0000      1.4049      0.9500      0.5000      0.9500      0.0500      0.0100           0
CLl             D                   300.0000      0.0000     33.0000     75.1641      1.0000      2.7893      0.9500      0.5000      0.9500      0.0500      0.0100           0
CLl             D                   300.0000      0.0000     33.0000     75.1641      1.0000      5.5419      0.9500      0.5000      0.9500      0.0500      0.0100           0
GYl             C                  1000.0000      0.0000    127.0000    234.5947      1.0000      0.7419      0.9500      0.5000      0.9500      0.5000      0.0100           0
GYl             C                  1000.0000      0.0000    127.0000    234.5947      1.0000      0.2943      0.9500      0.5000      0.9500      0.5000      0.0100           0
GYl             C                  1000.0000      0.0000    127.0000    234.5947      1.0000      1.2448      0.9500      0.5000      0.9500      0.5000      0.0100           0
GYl             C                  1000.0000      0.0000    127.0000    234.5947      1.0000      2.6341      0.9500      0.5000      0.9500      0.5000      0.0100           0
GYl             C                  1000.0000      0.0000    127.0000    234.5947      1.0000      4.6619      0.9500      0.5000      0.9500      0.5000      0.0100           0
GYk             C                  1000.0000      0.0000    133.0000    268.0970      1.0000      0.2981      0.9500      0.5000      0.9500      0.5000      0.0100           0
GYk             C                  1000.0000      0.0000    133.0000    268.0970      1.0000      0.6609      0.9500      0.5000      0.9500      0.5000      0.0100           0
GYk             C                  1000.0000      0.0000    133.0000    268.0970      1.0000      1.1911      0.9500      0.5000      0.9500      0.5000      0.0100           0
GYk             C                  1000.0000      0.0000    133.0000    268.0970      1.0000      2.3019      0.9500      0.5000      0.9500      0.5000      0.0100           0
GYk             C                  1000.0000      0.0000    133.0000    268.0970      0.7500      0.2724      0.9500      0.5000      0.9500      0.5000      0.0100           0
GYk             C                  1000.0000      0.0000    133.0000    268.0970      0.7500      0.7279      0.9500      0.5000      0.9500      0.5000      0.0100           0
CLl             D                   300.0000      0.0000     33.0000     75.1641      1.0000      6.5553      0.9500      0.5000      0.9500      0.0500      0.0100           0
CLl             D                   300.0000      0.0000     33.0000     75.1641      1.0000      1.4215      0.9500      0.5000      0.9500      0.0500      0.0100           0
CLl             D                   300.0000      0.0000     33.0000     75.1641      1.0000      2.8511      0.9500      0.5000      0.9500      0.0500      0.0100           0
CLl             D                   300.0000      0.0000     33.0000     75.1641      1.0000      0.3607      0.9500      0.5000      0.9500      0.0500      0.0100           0
CLl             D                   300.0000      0.0000     33.0000     75.1641      1.0000      0.8556      0.9500      0.5000      0.9500      0.0500      0.0100           0
GYl             C                  1000.0000      0.0000    127.0000    234.5947      1.0000      0.2889      0.9500      0.5000      0.9500      0.5000      0.0100           0
GYl             C                  1000.0000      0.0000    127.0000    234.5947      1.0000      0.6890      0.9500      0.5000      0.9500      0.5000      0.0100           0
GYl             C                  1000.0000      0.0000    127.0000    234.5947      1.0000      1.2848      0.9500      0.5000      0.9500      0.5000      0.0100           0
GYl             C                  1000.0000      0.0000    127.0000    234.5947      1.0000      2.4895      0.9500      0.5000      0.9500      0.5000      0.0100           0
GYk             C                  1000.0000      0.0000    133.0000    268.0970      1.0000      0.2782      0.9500      0.5000      0.9500      0.5000      0.0100           0
GYk             C                  1000.0000      0.0000    133.0000    268.0970      1.0000      0.5941      0.9500      0.5000      0.9500      0.5000      0.0100           0
GYk             C                  1000.0000      0.0000    133.0000    268.0970      1.0000      1.2665      0.9500      0.5000      0.9500      0.5000      0.0100           0
GYk             C                  1000.0000      0.0000    133.0000    268.0970      1.0000      2.1585      0.9500      0.5000      0.9500      0.5000      0.0100           0
ARh             A                  1000.0000      0.0000     40.0000    382.1385      1.0000      0.5847      0.9500      0.5000      0.9500      0.9000      0.0100           0
ARh             A                  1000.0000      0.0000     40.0000    382.1385      1.0000      0.2757      0.9500      0.5000      0.9500      0.9000      0.0100           0
ARh             A                  1000.0000      0.0000     40.0000    382.1385      1.0000      1.1111      0.9500      0.5000      0.9500      0.9000      0.0100           0
SCm             C                  1000.0000      0.0000    133.0000    249.4741      1.0000      0.2285      0.9500      0.5000      0.9500      0.5000      0.0100           0
SCm             C                  1000.0000      0.0000    133.0000    249.4741      1.0000      0.6375      0.9500      0.5000      0.9500      0.5000      0.0100           0
GYl             C                  1000.0000      0.0000    127.0000    234.5947      1.0000      0.1968      0.9500      0.5000      0.9500      0.0500      0.0100           0
GYl             C                  1000.0000      0.0000    127.0000    234.5947      1.0000      0.5482      0.9500      0.5000      0.9500      0.0500      0.0100           0
SCm             C                  1000.0000      0.0000    133.0000    249.4741      1.0000      0.0713      0.9500      0.5000      0.9500      0.5000      0.0100           0
GYl             C                  1000.0000      0.0000    127.0000    234.5947      1.0000      0.0713      0.9500      0.5000      0.9500      0.0500      0.0100           0
GYl             C                  1000.0000      0.0000    127.0000    234.5947      1.0000      0.6626      0.9500      0.5000      0.9500      0.5000      0.0100           0
GYl             C                  1000.0000      0.0000    127.0000    234.5947      1.0000      0.2600      0.9500      0.5000      0.9500      0.5000      0.0100           0
GYl             C                  1000.0000      0.0000    127.0000    234.5947      1.0000      1.1899      0.9500      0.5000      0.9500      0.5000      0.0100           0
LPe             D                   300.0000      0.0000     18.0000    109.6483      1.0000      0.6505      0.9500      0.5000      0.9500      0.0500      0.0100           0
LPe             D                   300.0000      0.0000     18.0000    109.6483      1.0000      0.3115      0.9500      0.5000      0.9500      0.0500      0.0100           0
LPe             D                   300.0000      0.0000     18.0000    109.6483      1.0000      1.0095      0.9500      0.5000      0.9500      0.0500      0.0100           0
GYk             C                  1000.0000      0.0000    133.0000    268.0970      1.0000      0.2658      0.9500      0.5000      0.9500      0.5000      0.0100           0
GYk             C                  1000.0000      0.0000    133.0000    268.0970      1.0000      0.6504      0.9500      0.5000      0.9500      0.5000      0.0100           0
GYk             C                  1000.0000      0.0000    133.0000    268.0970      1.0000      1.2346      0.9500      0.5000      0.9500      0.5000      0.0100           0
GYk             C                  1000.0000      0.0000    133.0000    268.0970      1.0000      2.7598      0.9500      0.5000      0.9500      0.5000      0.0100           0
RGc             B                  1000.0000      0.0000    110.0000    278.3696      1.0000      0.3003      0.9500      0.5000      0.9500      0.9000      0.0100           0
RGc             B                  1000.0000      0.0000    110.0000    278.3696      1.0000      0.6857      0.9500      0.5000      0.9500      0.9000      0.0100           0
RGc             B                  1000.0000      0.0000    110.0000    278.3696      1.0000      1.2459      0.9500      0.5000      0.9500      0.9000      0.0100           0
SCm             C                  1000.0000      0.0000    133.0000    249.4741      1.0000      0.2311      0.9500      0.5000      0.9500      0.5000      0.0100           0
SCm             C                  1000.0000      0.0000    133.0000    249.4741      1.0000      0.5998      0.9500      0.5000      0.9500      0.5000      0.0100           0
GYl             C                  1000.0000      0.0000    127.0000    234.5947      1.0000      0.2328      0.9500      0.5000      0.9500      0.0500      0.0100           0
GYl             C                  1000.0000      0.0000    127.0000    234.5947      1.0000      0.6028      0.9500      0.5000      0.9500      0.0500      0.0100           0
GYl             C                  1000.0000      0.0000    127.0000    234.5947      1.0000      1.5518      0.9500      0.5000      0.9500      0.0500      0.0100           0
GYk             C                  1000.0000      0.0000    133.0000    268.0970      0.7500      0.2669      0.9500      0.5000      0.9500      0.5000      0.0100           0
GYk             C                  1000.0000      0.0000    133.0000    268.0970      0.7500      0.6248      0.9500      0.5000      0.9500      0.5000      0.0100           0
RGc             B                  1000.0000      0.0000    110.0000    278.3696      0.7500      0.3720      0.9500      0.5000      0.9500      0.9000      0.0100           0
RGc             B                  1000.0000      0.0000    110.0000    278.3696      0.7500      0.6078      0.9500      0.5000      0.9500      0.9000      0.0100           0
SCm             C                  1000.0000      0.0000    133.0000    249.4741      0.7500      0.2508      0.9500      0.5000      0.9500      0.5000      0.0100           0
SCm             C                  1000.0000      0.0000    133.0000    249.4741      0.7500      0.6329      0.9500      0.5000      0.9500      0.5000      0.0100           0
SCm             C                  1000.0000      0.0000    133.0000    249.4741      0.7500      1.0095      0.9500      0.5000      0.9500      0.5000      0.0100           0
GYl             C                  1000.0000      0.0000    127.0000    234.5947      0.7500      0.2041      0.9500      0.5000      0.9500      0.0500      0.0100           0
GYk             C                  1000.0000      0.0000    133.0000    268.0970      1.0000      0.0714      0.9500      0.5000      0.9500      0.5000      0.0100           0
SCm             C                  1000.0000      0.0000    133.0000    249.4741      1.0000      0.0712      0.9500      0.5000      0.9500      0.5000      0.0100           0
GYl             C                  1000.0000      0.0000    127.0000    234.5947      1.0000      0.0713      0.9500      0.5000      0.9500      0.0500      0.0100           0
GYk             C                  1000.0000      0.0000    133.0000    268.0970      1.0000      0.3007      0.9500      0.5000      0.9500      0.5000      0.0100           0
GYk             C                  1000.0000      0.0000    133.0000    268.0970      1.0000      0.6611      0.9500      0.5000      0.9500      0.5000      0.0100           0
GYk             C                  1000.0000      0.0000    133.0000    268.0970      1.0000      0.2722      0.9500      0.5000      0.9500      0.5000      0.0100           0
GYk             C                  1000.0000      0.0000    133.0000    268.0970      1.0000      0.7339      0.9500      0.5000      0.9500      0.5000      0.0100           0
SCm             C                  1000.0000      0.0000    133.0000    249.4741      1.0000      0.2825      0.9500      0.5000      0.9500      0.5000      0.0100           0
SCm             C                  1000.0000      0.0000    133.0000    249.4741      1.0000      0.5401      0.9500      0.5000      0.9500      0.5000      0.0100           0
SCm             C                  1000.0000      0.0000    133.0000    249.4741      1.0000      0.0722      0.9500      0.5000      0.9500      0.5000      0.0100           0
GYl             C                  1000.0000      0.0000    127.0000    234.5947      1.0000      0.0707      0.9500      0.5000      0.9500      0.0500      0.0100           0
GYl             C                  1000.0000      0.0000    127.0000    234.5947      1.0000      0.0714      0.9500      0.5000      0.9500      0.0500      0.0100           0
SCm             C                  1000.0000      0.0000    133.0000    249.4741      1.0000      0.0712      0.9500      0.5000      0.9500      0.5000      0.0100           0
GYk             C                  1000.0000      0.0000    133.0000    268.0970      1.0000      0.0722      0.9500      0.5000      0.9500      0.5000      0.0100           0
GYl             C                  1000.0000      0.0000    127.0000    234.5947      1.0000      0.7979      0.9500      0.5000      0.9500      0.0500      0.0100           0
SCm             C                  1000.0000      0.0000    133.0000    249.4741      1.0000      0.2300      0.9500      0.5000      0.9500      0.5000      0.0100           0
SCm             C                  1000.0000      0.0000    133.0000    249.4741      1.0000      0.5953      0.9500      0.5000      0.9500      0.5000      0.0100           0
GYk             C                  1000.0000      0.0000    133.0000    268.0970      1.0000      0.7172      0.9500      0.5000      0.9500      0.5000      0.0100           0
GYk             C                  1000.0000      0.0000    133.0000    268.0970      1.0000      0.2409      0.9500      0.5000      0.9500      0.5000      0.0100           0
GYk             C                  1000.0000      0.0000    133.0000    268.0970      1.0000      1.4051      0.9500      0.5000      0.9500      0.5000      0.0100           0
CLl             D                   300.0000      0.0000     33.0000     75.1641      1.0000      0.2990      0.9500      0.5000      0.9500      0.0500      0.0100           0
CLl             D                   300.0000      0.0000     33.0000     75.1641      1.0000      0.7699      0.9500      0.5000      0.9500      0.0500      0.0100           0
CLl             D                   300.0000      0.0000     33.0000     75.1641      1.0000      1.3838      0.9500      0.5000      0.9500      0.0500      0.0100           0
CLl             D                   300.0000      0.0000     33.0000     75.1641      1.0000      2.8686      0.9500      0.5000      0.9500      0.0500      0.0100           0
CLl             D                   300.0000      0.0000     33.0000     75.1641      1.0000      5.2679      0.9500      0.5000      0.9500      0.0500      0.0100           0
GYl             C                  1000.0000      0.0000    127.0000    234.5947      1.0000      0.2645      0.9500      0.5000      0.9500      0.5000      0.0100           0
GYl             C                  1000.0000      0.0000    127.0000    234.5947      1.0000      0.8206      0.9500      0.5000      0.9500      0.5000      0.0100           0
GYl             C                  1000.0000      0.0000    127.0000    234.5947      1.0000      1.2984      0.9500      0.5000      0.9500      0.5000      0.0100           0
GYl             C                  1000.0000      0.0000    127.0000    234.5947      1.0000      2.7645      0.9500      0.5000      0.9500      0.5000      0.0100           0
GYk             C                  1000.0000      0.0000    133.0000    268.0970      1.0000      0.2220      0.9500      0.5000      0.9500      0.5000      0.0100           0
GYk             C                  1000.0000      0.0000    133.0000    268.0970      1.0000      0.6742      0.9500      0.5000      0.9500      0.5000      0.0100           0
GYk             C                  1000.0000      0.0000    133.0000    268.0970      1.0000      1.2247      0.9500      0.5000      0.9500      0.5000      0.0100           0
SCm             C                  1000.0000      0.0000    133.0000    249.4741      1.0000      0.2151      0.9500      0.5000      0.9500      0.5000      0.0100           0
SCm             C                  1000.0000      0.0000    133.0000    249.4741      1.0000      0.5629      0.9500      0.5000      0.9500      0.5000      0.0100           0
GYl             C                  1000.0000      0.0000    127.0000    234.5947      1.0000      0.1652      0.9500      0.5000      0.9500      0.0500      0.0100           0
GYl             C                  1000.0000      0.0000    127.0000    234.5947      1.0000      0.6143      0.9500      0.5000      0.9500      0.0500      0.0100           0
ARb             A                  1000.0000      0.0000     52.0000    327.2990      1.0000      0.7999      0.9500      0.5000      0.9500      0.9000      0.0100           0
ARb             A                  1000.0000      0.0000     52.0000    327.2990      1.0000      0.2088      0.9500      0.5000      0.9500      0.9000      0.0100           0
FLc             C                  1000.0000      0.0000    130.0000    303.0450      1.0000      0.2782      0.9500      0.5000      0.9500      0.5000      0.0100           0
FLc             C                  1000.0000      0.0000    130.0000    303.0450      1.0000      0.8506      0.9500      0.5000      0.9500      0.5000      0.0100           0
GYl             C                  1000.0000      0.0000    127.0000    234.5947      1.0000      0.0712      0.9500      0.5000      0.9500      0.0500      0.0100           0
SCm             C                  1000.0000      0.0000    133.0000    249.4741      1.0000      0.0713      0.9500      0.5000      0.9500      0.5000      0.0100           0
GYk             C                  1000.0000      0.0000    133.0000    268.0970      1.0000      0.0716      0.9500      0.5000      0.9500      0.5000      0.0100           0
GYl             C                  1000.0000      0.0000    127.0000    234.5947      0.7500      0.1544      0.9500      0.5000      0.9500      0.0500      0.0100           0
GYl             C                  1000.0000      0.0000    127.0000    234.5947      0.7500      0.5841      0.9500      0.5000      0.9500      0.0500      0.0100           0
SCm             C                  1000.0000      0.0000    133.0000    249.4741      0.7500      0.2018      0.9500      0.5000      0.9500      0.5000      0.0100           0
SCm             C                  1000.0000      0.0000    133.0000    249.4741      0.7500      0.5968      0.9500      0.5000      0.9500      0.5000      0.0100           0
GYk             C                  1000.0000      0.0000    133.0000    268.0970      0.7500      0.2106      0.9500      0.5000      0.9500      0.5000      0.0100           0
GYk             C                  1000.0000      0.0000    133.0000    268.0970      0.7500      0.5672      0.9500      0.5000      0.9500      0.5000      0.0100           0
FLc             C                  1000.0000      0.0000    130.0000    303.0450      0.7500      0.5866      0.9500      0.5000      0.9500      0.5000      0.0100           0
FLc             C                  1000.0000      0.0000    130.0000    303.0450      0.7500      0.1738      0.9500      0.5000      0.9500      0.5000      0.0100           0
GYk             C                  1000.0000      0.0000    133.0000    268.0970      1.0000      0.2234      0.9500      0.5000      0.9500      0.5000      0.0100           0
FLc             C                  1000.0000      0.0000    130.0000    303.0450      1.0000      0.2234      0.9500      0.5000      0.9500      0.5000      0.0100           0
CLl             D                   300.0000      0.0000     33.0000     75.1641      1.0000      0.7302      0.9500      0.5000      0.9500      0.0500      0.0100           0
CLl             D                   300.0000      0.0000     33.0000     75.1641      1.0000      0.2901      0.9500      0.5000      0.9500      0.0500      0.0100           0
CLl             D                   300.0000      0.0000     33.0000     75.1641      1.0000      1.3357      0.9500      0.5000      0.9500      0.0500      0.0100           0
CLl             D                   300.0000      0.0000     33.0000     75.1641      1.0000      2.6955      0.9500      0.5000      0.9500      0.0500      0.0100           0
CLl             D                   300.0000      0.0000     33.0000     75.1641      1.0000      5.2917      0.9500      0.5000      0.9500      0.0500      0.0100           0
GYl             C                  1000.0000      0.0000    127.0000    234.5947      1.0000      0.2710      0.9500      0.5000      0.9500      0.5000      0.0100           0
GYl             C                  1000.0000      0.0000    127.0000    234.5947      1.0000      0.7704      0.9500      0.5000      0.9500      0.5000      0.0100           0
GYl             C                  1000.0000      0.0000    127.0000    234.5947      1.0000      1.2572      0.9500      0.5000      0.9500      0.5000      0.0100           0
GYl             C                  1000.0000      0.0000    127.0000    234.5947      1.0000      2.4040      0.9500      0.5000      0.9500      0.5000      0.0100           0
GYl             C                  1000.0000      0.0000    127.0000    234.5947      1.0000      4.3928      0.9500      0.5000      0.9500      0.5000      0.0100           0
GYk             C                  1000.0000      0.0000    133.0000    268.0970      1.0000      0.2391      0.9500      0.5000      0.9500      0.5000      0.0100           0
GYk             C                  1000.0000      0.0000    133.0000    268.0970      1.0000      0.7943      0.9500      0.5000      0.9500      0.5000      0.0100           0
GYk             C                  1000.0000      0.0000    133.0000    268.0970      1.0000      1.2805      0.9500      0.5000      0.9500      0.5000      0.0100           0
GYk             C                  1000.0000      0.0000    133.0000    268.0970      1.0000      2.7342      0.9500      0.5000      0.9500      0.5000      0.0100           0
GYk             C                  1000.0000      0.0000    133.0000    268.0970      1.0000      5.0122      0.9500      0.5000      0.9500      0.5000      0.0100           0
SCm             C                  1000.0000      0.0000    133.0000    249.4741      1.0000      0.2413      0.9500      0.5000      0.9500      0.5000      0.0100           0
SCm             C                  1000.0000      0.0000    133.0000    249.4741      1.0000      0.7418      0.9500      0.5000      0.9500      0.5000      0.0100           0
SCm             C                  1000.0000      0.0000    133.0000    249.4741      1.0000      1.5172      0.9500      0.5000      0.9500      0.5000      0.0100           0
SCm             C                  1000.0000      0.0000    133.0000    249.4741      1.0000      5.0703      0.9500      0.5000      0.9500      0.5000      0.0100           0
SCm             C                  1000.0000      0.0000    133.0000    249.4741      1.0000      2.9076      0.9500      0.5000      0.9500      0.5000      0.0100           0
GYl             C                  1000.0000      0.0000    127.0000    234.5947      1.0000      0.2207      0.9500      0.5000      0.9500      0.0500      0.0100           0
GYl             C                  1000.0000      0.0000    127.0000    234.5947      1.0000      1.4830      0.9500      0.5000      0.9500      0.0500      0.0100           0
GYl             C                  1000.0000      0.0000    127.0000    234.5947      1.0000      0.8431      0.9500      0.5000      0.9500      0.0500      0.0100           0
FLc             C                  1000.0000      0.0000    130.0000    303.0450      1.0000      0.1977      0.9500      0.5000      0.9500      0.5000      0.0100           0
FLc             C                  1000.0000      0.0000    130.0000    303.0450      1.0000      0.7966      0.9500      0.5000      0.9500      0.5000      0.0100           0
FLc             C                  1000.0000      0.0000    130.0000    303.0450      1.0000      1.3685      0.9500      0.5000      0.9500      0.5000      0.0100           0
ARb             A                  1000.0000      0.0000     52.0000    327.2990      1.0000      0.2110      0.9500      0.5000      0.9500      0.9000      0.0100           0
ARb             A                  1000.0000      0.0000     52.0000    327.2990      1.0000      0.7004      0.9500      0.5000      0.9500      0.9000      0.0100           0
GYl             C                  1000.0000      0.0000    127.0000    234.5947      0.7500      0.2128      0.9500      0.5000      0.9500      0.0500      0.0100           0
GYl             C                  1000.0000      0.0000    127.0000    234.5947      0.7500      0.5591      0.9500      0.5000      0.9500      0.0500      0.0100           0
SCm             C                  1000.0000      0.0000    133.0000    249.4741      0.7500      0.2082      0.9500      0.5000      0.9500      0.5000      0.0100           0
SCm             C                  1000.0000      0.0000    133.0000    249.4741      0.7500      0.8729      0.9500      0.5000      0.9500      0.5000      0.0100           0
SCm             C                  1000.0000      0.0000    133.0000    249.4741      0.7500      1.2539      0.9500      0.5000      0.9500      0.5000      0.0100           0
SCm             C                  1000.0000      0.0000    133.0000    249.4741      0.7500      3.0144      0.9500      0.5000      0.9500      0.5000      0.0100           0
SCm             C                  1000.0000      0.0000    133.0000    249.4741      0.7500      5.2590      0.9500      0.5000      0.9500      0.5000      0.0100           0
GYk             C                  1000.0000      0.0000    133.0000    268.0970      0.7500      0.2112      0.9500      0.5000      0.9500      0.5000      0.0100           0
GYk             C                  1000.0000      0.0000    133.0000    268.0970      0.7500      0.7536      0.9500      0.5000      0.9500      0.5000      0.0100           0
GYk             C                  1000.0000      0.0000    133.0000    268.0970      0.7500      2.2297      0.9500      0.5000      0.9500      0.5000      0.0100           0
ARb             A                  1000.0000      0.0000     52.0000    327.2990      0.7500      0.2126      0.9500      0.5000      0.9500      0.9000      0.0100           0
ARb             A                  1000.0000      0.0000     52.0000    327.2990      0.7500      0.6738      0.9500      0.5000      0.9500      0.9000      0.0100           0
FLc             C                  1000.0000      0.0000    130.0000    303.0450      0.7500      0.2359      0.9500      0.5000      0.9500      0.5000      0.0100           0
FLc             C                  1000.0000      0.0000    130.0000    303.0450      0.7500      0.5758      0.9500      0.5000      0.9500      0.5000      0.0100           0
[...]
LPi             D                   300.0000      0.0000     33.0000    126.6131      1.0000      1.5035      0.9500      0.5000      0.9500      0.0500      0.0100           0
LPi             D                   300.0000      0.0000     33.0000    126.6131      1.0000      2.8712      0.9500      0.5000      0.9500      0.0500      0.0100           0
LPi             D                   300.0000      0.0000     33.0000    126.6131      1.0000      7.6042      0.9500      0.5000      0.9500      0.0500      0.0100           0
LPi             D                   300.0000      0.0000     33.0000    126.6131      1.0000      0.2440      0.9500      0.5000      0.9500      0.0500      0.0100           0
CHl             C                  1000.0000      0.0000    119.0000    279.4616      1.0000      2.7755      0.9500      0.5000      0.9500      0.5000      0.0100           0
CHl             C                  1000.0000      0.0000    119.0000    279.4616      1.0000      7.4071      0.9500      0.5000      0.9500      0.5000      0.0100           0
CHl             C                  1000.0000      0.0000    119.0000    279.4616      1.0000      1.4967      0.9500      0.5000      0.9500      0.5000      0.0100           0
CHl             C                  1000.0000      0.0000    119.0000    279.4616      1.0000      0.5936      0.9500      0.5000      0.9500      0.5000      0.0100           0
CHl             C                  1000.0000      0.0000    119.0000    279.4616      1.0000      0.2619      0.9500      0.5000      0.9500      0.5000      0.0100           0
LPe             D                   300.0000      0.0000     18.0000    109.6483      1.0000      2.7718      0.9500      0.5000      0.9500      0.0500      0.0100           0
LPe             D                   300.0000      0.0000     18.0000    109.6483      1.0000      1.4807      0.9500      0.5000      0.9500      0.0500      0.0100           0
LPe             D                   300.0000      0.0000     18.0000    109.6483      1.0000      6.1444      0.9500      0.5000      0.9500      0.0500      0.0100           0
LPe             D                   300.0000      0.0000     18.0000    109.6483      1.0000      0.3009      0.9500      0.5000      0.9500      0.0500      0.0100           0
LPe             D                   300.0000      0.0000     18.0000    109.6483      1.0000      0.9818      0.9500      0.5000      0.9500      0.0500      0.0100           0
LPm             D                   300.0000      0.0000     48.0000    132.6068      1.0000      6.6195      0.9500      0.5000      0.9500      0.0500      0.0100           0
LPm             D                   300.0000      0.0000     48.0000    132.6068      1.0000      0.9954      0.9500      0.5000      0.9500      0.0500      0.0100           0
LPm             D                   300.0000      0.0000     48.0000    132.6068      1.0000      2.8282      0.9500      0.5000      0.9500      0.0500      0.0100           0
LPm             D                   300.0000      0.0000     48.0000    132.6068      1.0000      1.4898      0.9500      0.5000      0.9500      0.0500      0.0100           0
LPm             D                   300.0000      0.0000     48.0000    132.6068      1.0000      0.3091      0.9500      0.5000      0.9500      0.0500      0.0100           0
CMi             C                  1000.0000      0.0000    112.0000    341.4875      1.0000      1.5229      0.9500      0.5000      0.9500      0.5000      0.0100           0
CMi             C                  1000.0000      0.0000    112.0000    341.4875      1.0000      6.9137      0.9500      0.5000      0.9500      0.5000      0.0100           0
CMi             C                  1000.0000      0.0000    112.0000    341.4875      1.0000      2.9114      0.9500      0.5000      0.9500      0.5000      0.0100           0
CMi             C                  1000.0000      0.0000    112.0000    341.4875      1.0000      0.6099      0.9500      0.5000      0.9500      0.5000      0.0100           0
CMi             C                  1000.0000      0.0000    112.0000    341.4875      1.0000      0.2159      0.9500      0.5000      0.9500      0.5000      0.0100           0
PHc             B                  1000.0000      0.0000    143.0000    304.4128      1.0000      2.9210      0.9500      0.5000      0.9500      0.9000      0.0100           0
PHc             B                  1000.0000      0.0000    143.0000    304.4128      1.0000      1.3549      0.9500      0.5000      0.9500      0.9000      0.0100           0
PHc             B                  1000.0000      0.0000    143.0000    304.4128      1.0000      5.3592      0.9500      0.5000      0.9500      0.9000      0.0100           0
PHc             B                  1000.0000      0.0000    143.0000    304.4128      1.0000      0.2937      0.9500      0.5000      0.9500      0.9000      0.0100           0
PHc             B                  1000.0000      0.0000    143.0000    304.4128      1.0000      0.8234      0.9500      0.5000      0.9500      0.9000      0.0100           0
HSs             B                  1000.0000      0.0000    124.0000    432.8693      1.0000      1.3828      0.9500      0.5000      0.9500      0.9000      0.0100           0
HSs             B                  1000.0000      0.0000    124.0000    432.8693      1.0000      2.6910      0.9500      0.5000      0.9500      0.9000      0.0100           0
HSs             B                  1000.0000      0.0000    124.0000    432.8693      1.0000      0.5767      0.9500      0.5000      0.9500      0.9000      0.0100           0
HSs             B                  1000.0000      0.0000    124.0000    432.8693      1.0000      0.3117      0.9500      0.5000      0.9500      0.9000      0.0100           0
HSs             B                  1000.0000      0.0000    124.0000    432.8693      1.0000      4.4870      0.9500      0.5000      0.9500      0.9000      0.0100           0
LPi             D                   300.0000      0.0000     33.0000    126.6131      1.0000      7.7402      0.9500      0.5000      0.9500      0.0500      0.0100           0
LPi             D                   300.0000      0.0000     33.0000    126.6131      1.0000      2.8710      0.9500      0.5000      0.9500      0.0500      0.0100           0
LPi             D                   300.0000      0.0000     33.0000    126.6131      1.0000      1.5309      0.9500      0.5000      0.9500      0.0500      0.0100           0
LPi             D                   300.0000      0.0000     33.0000    126.6131      1.0000      0.2312      0.9500      0.5000      0.9500      0.0500      0.0100           0
LPi             D                   300.0000      0.0000     33.0000    126.6131      1.0000      0.6125      0.9500      0.5000      0.9500      0.0500      0.0100           0
CHl             C                  1000.0000      0.0000    119.0000    279.4616      1.0000      2.8932      0.9500      0.5000      0.9500      0.5000      0.0100           0
CHl             C                  1000.0000      0.0000    119.0000    279.4616      1.0000      6.6894      0.9500      0.5000      0.9500      0.5000      0.0100           0
CHl             C                  1000.0000      0.0000    119.0000    279.4616      1.0000      1.5962      0.9500      0.5000      0.9500      0.5000      0.0100           0
CHl             C                  1000.0000      0.0000    119.0000    279.4616      1.0000      0.6096      0.9500      0.5000      0.9500      0.5000      0.0100           0
CHl             C                  1000.0000      0.0000    119.0000    279.4616      1.0000      0.2716      0.9500      0.5000      0.9500      0.5000      0.0100           0
LPe             D                   300.0000      0.0000     18.0000    109.6483      1.0000      1.4724      0.9500      0.5000      0.9500      0.0500      0.0100           0
LPe             D                   300.0000      0.0000     18.0000    109.6483      1.0000      6.4611      0.9500      0.5000      0.9500      0.0500      0.0100           0
LPe             D                   300.0000      0.0000     18.0000    109.6483      1.0000      0.5645      0.9500      0.5000      0.9500      0.0500      0.0100           0
LPe             D                   300.0000      0.0000     18.0000    109.6483      1.0000      2.7865      0.9500      0.5000      0.9500      0.0500      0.0100           0
LPe             D                   300.0000      0.0000     18.0000    109.6483      1.0000      0.2787      0.9500      0.5000      0.9500      0.0500      0.0100           0
LPm             D                   300.0000      0.0000     48.0000    132.6068      1.0000      6.8300      0.9500      0.5000      0.9500      0.0500      0.0100           0
LPm             D                   300.0000      0.0000     48.0000    132.6068      1.0000      2.8496      0.9500      0.5000      0.9500      0.0500      0.0100           0
LPm             D                   300.0000      0.0000     48.0000    132.6068      1.0000      0.6007      0.9500      0.5000      0.9500      0.0500      0.0100           0
LPm             D                   300.0000      0.0000     48.0000    132.6068      1.0000      0.3151      0.9500      0.5000      0.9500      0.0500      0.0100           0
LPm             D                   300.0000      0.0000     48.0000    132.6068      1.0000      1.4960      0.9500      0.5000      0.9500      0.0500      0.0100           0
CMi             C                  1000.0000      0.0000    112.0000    341.4875      1.0000      0.2234      0.9500      0.5000      0.9500      0.5000      0.0100           0
CMi             C                  1000.0000      0.0000    112.0000    341.4875      1.0000      7.6210      0.9500      0.5000      0.9500      0.5000      0.0100           0
CMi             C                  1000.0000      0.0000    112.0000    341.4875      1.0000      0.5939      0.9500      0.5000      0.9500      0.5000      0.0100           0
CMi             C                  1000.0000      0.0000    112.0000    341.4875      1.0000      1.5069      0.9500      0.5000      0.9500      0.5000      0.0100           0
CMi             C                  1000.0000      0.0000    112.0000    341.4875      1.0000      2.8468      0.9500      0.5000      0.9500      0.5000      0.0100           0
PHc             B                  1000.0000      0.0000    143.0000    304.4128      1.0000      0.2834      0.9500      0.5000      0.9500      0.9000      0.0100           0
PHc             B                  1000.0000      0.0000    143.0000    304.4128      1.0000      2.8521      0.9500      0.5000      0.9500      0.9000      0.0100           0
PHc             B                  1000.0000      0.0000    143.0000    304.4128      1.0000      0.5422      0.9500      0.5000      0.9500      0.9000      0.0100           0
PHc             B                  1000.0000      0.0000    143.0000    304.4128      1.0000      1.3847      0.9500      0.5000      0.9500      0.9000      0.0100           0
HSs             B                  1000.0000      0.0000    124.0000    432.8693      1.0000      0.2929      0.9500      0.5000      0.9500      0.9000      0.0100           0
HSs             B                  1000.0000      0.0000    124.0000    432.8693      1.0000      0.5567      0.9500      0.5000      0.9500      0.9000      0.0100           0
HSs             B                  1000.0000      0.0000    124.0000    432.8693      1.0000      1.3953      0.9500      0.5000      0.9500      0.9000      0.0100           0
HSs             B                  1000.0000      0.0000    124.0000    432.8693      1.0000      2.7671      0.9500      0.5000      0.9500      0.9000      0.0100           0
LPe             D                   300.0000      0.0000     18.0000    109.6483      1.0000      0.8899      0.9500      0.5000      0.9500      0.0500      0.0100           0
LPe             D                   300.0000      0.0000     18.0000    109.6483      1.0000      1.3720      0.9500      0.5000      0.9500      0.0500      0.0100           0
LPe             D                   300.0000      0.0000     18.0000    109.6483      1.0000      0.4405      0.9500      0.5000      0.9500      0.0500      0.0100           0
LPm             D                   300.0000      0.0000     48.0000    132.6068      1.0000      1.2071      0.9500      0.5000      0.9500      0.0500      0.0100           0
LPm             D                   300.0000      0.0000     48.0000    132.6068      1.0000      0.5853      0.9500      0.5000      0.9500      0.0500      0.0100           0
LPm             D                   300.0000      0.0000     48.0000    132.6068      1.0000      0.5476      0.9500      0.5000      0.9500      0.0500      0.0100           0
LPe             D                   300.0000      0.0000     18.0000    109.6483      0.7500      0.9264      0.9500      0.5000      0.9500      0.0500      0.0100           0
LPe             D                   300.0000      0.0000     18.0000    109.6483      0.7500      0.2751      0.9500      0.5000      0.9500      0.0500      0.0100           0
LPe             D                   300.0000      0.0000     18.0000    109.6483      0.7500      4.9701      0.9500      0.5000      0.9500      0.0500      0.0100           0
LPe             D                   300.0000      0.0000     18.0000    109.6483      0.7500      1.2474      0.9500      0.5000      0.9500      0.0500      0.0100           0
LPe             D                   300.0000      0.0000     18.0000    109.6483      0.7500      2.3542      0.9500      0.5000      0.9500      0.0500      0.0100           0
CHl             C                  1000.0000      0.0000    119.0000    279.4616      0.7500      0.3559      0.9500      0.5000      0.9500      0.5000      0.0100           0
CHl             C                  1000.0000      0.0000    119.0000    279.4616      0.7500      0.6017      0.9500      0.5000      0.9500      0.5000      0.0100           0
CHl             C                  1000.0000      0.0000    119.0000    279.4616      0.7500      0.9613      0.9500      0.5000      0.9500      0.5000      0.0100           0
LPe             D                   300.0000      0.0000     18.0000    109.6483      1.0000      0.4177      0.9500      0.5000      0.9500      0.0500      0.0100           0
LPe             D                   300.0000      0.0000     18.0000    109.6483      1.0000      0.9967      0.9500      0.5000      0.9500      0.0500      0.0100           0
LPe             D                   300.0000      0.0000     18.0000    109.6483      1.0000      1.0958      0.9500      0.5000      0.9500      0.0500      0.0100           0
LPm             D                   300.0000      0.0000     48.0000    132.6068      1.0000      2.0884      0.9500      0.5000      0.9500      0.0500      0.0100           0
LPm             D                   300.0000      0.0000     48.0000    132.6068      1.0000      3.1419      0.9500      0.5000      0.9500      0.0500      0.0100           0
LPm             D                   300.0000      0.0000     48.0000    132.6068      1.0000      0.7507      0.9500      0.5000      0.9500      0.0500      0.0100           0
LPi             D                   300.0000      0.0000     33.0000    126.6131      1.0000      2.9286      0.9500      0.5000      0.9500      0.0500      0.0100           0
LPi             D                   300.0000      0.0000     33.0000    126.6131      1.0000      6.7526      0.9500      0.5000      0.9500      0.0500      0.0100           0
LPi             D                   300.0000      0.0000     33.0000    126.6131      1.0000      1.4118      0.9500      0.5000      0.9500      0.0500      0.0100           0
LPi             D                   300.0000      0.0000     33.0000    126.6131      1.0000      0.9731      0.9500      0.5000      0.9500      0.0500      0.0100           0
LPi             D                   300.0000      0.0000     33.0000    126.6131      1.0000      0.3367      0.9500      0.5000      0.9500      0.0500      0.0100           0
CMi             C                  1000.0000      0.0000    112.0000    341.4875      1.0000      5.8892      0.9500      0.5000      0.9500      0.5000      0.0100           0
CMi             C                  1000.0000      0.0000    112.0000    341.4875      1.0000      0.7019      0.9500      0.5000      0.9500      0.5000      0.0100           0
CMi             C                  1000.0000      0.0000    112.0000    341.4875      1.0000      2.7997      0.9500      0.5000      0.9500      0.5000      0.0100           0
CMi             C                  1000.0000      0.0000    112.0000    341.4875      1.0000      1.5208      0.9500      0.5000      0.9500      0.5000      0.0100           0
CMi             C                  1000.0000      0.0000    112.0000    341.4875      1.0000      0.0962      0.9500      0.5000      0.9500      0.5000      0.0100           0
LPm             D                   300.0000      0.0000     48.0000    132.6068      1.0000      4.5951      0.9500      0.5000      0.9500      0.0500      0.0100           0
LPm             D                   300.0000      0.0000     48.0000    132.6068      1.0000      0.9945      0.9500      0.5000      0.9500      0.0500      0.0100           0
LPm             D                   300.0000      0.0000     48.0000    132.6068      1.0000      1.4312      0.9500      0.5000      0.9500      0.0500      0.0100           0
LPm             D                   300.0000      0.0000     48.0000    132.6068      1.0000      2.7830      0.9500      0.5000      0.9500      0.0500      0.0100           0
LPm             D                   300.0000      0.0000     48.0000    132.6068      1.0000      0.3104      0.9500      0.5000      0.9500      0.0500      0.0100           0
HSs             B                  1000.0000      0.0000    124.0000    432.8693      1.0000      1.3449      0.9500      0.5000      0.9500      0.9000      0.0100           0
HSs             B                  1000.0000      0.0000    124.0000    432.8693      1.0000      2.6647      0.9500      0.5000      0.9500      0.9000      0.0100           0
HSs             B                  1000.0000      0.0000    124.0000    432.8693      1.0000      0.3198      0.9500      0.5000      0.9500      0.9000      0.0100           0
HSs             B                  1000.0000      0.0000    124.0000    432.8693      1.0000      0.9749      0.9500      0.5000      0.9500      0.9000      0.0100           0
PHc             B                  1000.0000      0.0000    143.0000    304.4128      1.0000      0.8297      0.9500      0.5000      0.9500      0.9000      0.0100           0
PHc             B                  1000.0000      0.0000    143.0000    304.4128      1.0000      0.2424      0.9500      0.5000      0.9500      0.9000      0.0100           0
PHc             B                  1000.0000      0.0000    143.0000    304.4128      1.0000      1.2935      0.9500      0.5000      0.9500      0.9000      0.0100           0
LPe             D                   300.0000      0.0000     18.0000    109.6483      1.0000      1.1866      0.9500      0.5000      0.9500      0.0500      0.0100           0
LPe             D                   300.0000      0.0000     18.0000    109.6483      1.0000      0.5571      0.9500      0.5000      0.9500      0.0500      0.0100           0
LPe             D                   300.0000      0.0000     18.0000    109.6483      1.0000      2.5653      0.9500      0.5000      0.9500      0.0500      0.0100           0
