 ex1018                    SWAT+ 2025-11-20        MODULAR Rev 2025.unknown                               
