                   SWAT+               
             Revision 61.0.2.5-552-ga4e85d8  
      Soil & Water Assessment Tool    
IntelLLVM (2025.3.0), 2025-11-19 15:52:45, Windows
    Program reading . . . executing


  Date of Sim  11/19/2025 Time  15:53:30
 reading from pet file                   Time  15:53:30
 reading from precipitation file         Time  15:53:30
 reading from temperature file           Time  15:53:30
 reading from solar radiation file       Time  15:53:32
 reading from relative humidity file     Time  15:53:34
 reading from wind file                  Time  15:53:35
 reading from wgn file                   Time  15:53:36
 reading from wx station file            Time  15:53:36
  Original Simulation            1   1  2005 Yr    1 of   14 Time  16:10:45
