                   SWAT+               
             Revision unknown  
      Soil & Water Assessment Tool    
GNU (13.3.0), 2025-11-20 18:07:23, Linux
    Program reading . . . executing

