                   SWAT+               
             Revision 61.0.2.5-213-gc8db543  
      Soil & Water Assessment Tool    
IntelLLVM (2025.1.1), 2025-05-15 13:51:57, Linux
    Program reading . . . executing


  Date of Sim   5/15/2025 Time  13:55:51
 reading from pet file                   Time  13:55:51
 reading from precipitation file         Time  13:55:51
 reading from temperature file           Time  13:55:51
 reading from solar radiation file       Time  13:55:51
 reading from relative humidity file     Time  13:55:51
 reading from wind file                  Time  13:55:51
 reading from wgn file                   Time  13:55:51
 reading from wx station file            Time  13:55:51
