                   SWAT+               
             Revision unknown  
      Soil & Water Assessment Tool    
GNU (13.3.0), 2025-08-27 19:02:55, Linux
    Program reading . . . executing

