                   SWAT+               
             Revision unknown  
      Soil & Water Assessment Tool    
GNU (13.3.0), 2025-09-11 16:54:46, Linux
    Program reading . . . executing

