 demo                      SWAT+ 2025-07-16        MODULAR Rev 2025.61.0.2.11-219-g8a465b1                
                                        zmx       usle_k       sumfc       sumul      usle_p     usle_ls        esco        epco     cn3_swf       perco     latq_co   tiledrain 
 sname           hydgrp                 (mm)                    (mm)        (mm)                                                                                     0=notile;1=tile;
soil_01         B                  2000.0000      0.0000    361.5003    616.0899      1.0000      0.3638      0.9500      1.0000      0.0000      0.5000      0.0100           0
soil_02         B                  2000.0000      0.0000    361.5004    449.0375      1.0000      0.3638      0.9500      1.0000      0.0000      0.5000      0.0100           0
soil_03         B                  2000.0000      0.0000    361.5004    610.3228      1.0000      0.3638      0.9500      1.0000      0.0000      0.5000      0.0100           0
soil_04         B                  2000.0000      0.0000    361.5004    603.6757      1.0000      0.3638      0.9500      1.0000      0.0000      0.5000      0.0100           0
soil_05         B                  2000.0000      0.0000    361.5004    605.5881      1.0000      0.3638      0.9500      1.0000      0.0000      0.5000      0.0100           0
soil_06         B                  2000.0000      0.0000    361.5004    597.6781      1.0000      0.3638      0.9500      1.0000      0.0000      0.0500      0.0100           0
soil_07         B                  2000.0000      0.0000    361.5004    619.7808      1.0000      0.3638      0.9500      1.0000      0.0000      0.5000      0.0100           0
soil_08         B                  2000.0000      0.0000    361.5004    515.7599      1.0000      0.3638      0.9500      1.0000      0.0000      0.5000      0.0100           0
soil_09         B                  2000.0000      0.0000    361.5004    591.4498      1.0000      0.3638      0.9500      1.0000      0.0000      0.5000      0.0100           0
soil_10         B                  2000.0000      0.0000    361.5004    556.5651      1.0000      0.3638      0.9500      1.0000      0.0000      0.5000      0.0100           0
soil_11         B                  2000.0000      0.0000    361.5004    462.4441      1.0000      0.3638      0.9500      1.0000      0.0000      0.5000      0.0100           0
soil_12         B                  2000.0000      0.0000    361.5004    539.4287      1.0000      0.3638      0.9500      1.0000      0.0000      0.0500      0.0100           0
