 ceap_07010101             SWAT+ 2025-08-07        MODULAR Rev 2025.61.0.2.11-217-gfe5e2fd                
                                        zmx       usle_k       sumfc       sumul      usle_p     usle_ls        esco        epco     cn3_swf       perco     latq_co   tiledrain 
 sname           hydgrp                 (mm)                    (mm)        (mm)                                                                                     0=notile;1=tile;
430423          B                  1520.0000      0.0000    132.3000    444.6712      1.0000      0.3511      0.0000      1.0000      0.0000      1.0000      0.1412           0
