 ceap_07010101             SWAT+ @TODAY@        MODULAR Rev @YEAR@.@SWAT_VERSION@   April 17_NAM          
 ob_typ         props       area_ha   flash_idx       mean          max        p.1               p.5           p1                 p2             p3             p5            p10            p15            p20            p25            p30            p35            p40            p45            p50            p55            p60            p65            p70            p75            p80            p85            p90            p95            p97            p98            p99            min 
 chandeg            1   7660.980      3.1719381E-05  2.5831550E-04  1.1650637E-02  1.1650637E-02  1.0592873E-02  8.3786724E-03  4.1678660E-03  1.5916937E-03  9.9150266E-04  2.8261094E-04  1.5589713E-04  1.0101141E-04  7.4570671E-05  5.6345376E-05  3.0542531E-05  1.8111166E-05  1.2550999E-05  3.0072699E-06  4.5291691E-07  4.5329131E-08  7.7396551E-09  2.4276294E-09  4.8135507E-10  4.8135507E-10  4.8135507E-10  4.8135507E-10  4.8135507E-10  4.8135507E-10  4.8135507E-10  4.8135507E-10  4.8135507E-10
