                   SWAT+               
             Revision 61.0.2.11-341-ga4e85d8  
      Soil & Water Assessment Tool    
IntelLLVM (2025.3.0), 2025-11-12 18:54:30, Windows
    Program reading . . . executing


  Date of Sim  11/18/2025 Time  13:20:57
 reading from pet file                   Time  13:20:57
 reading from precipitation file         Time  13:20:57
 reading from temperature file           Time  13:20:57
 reading from solar radiation file       Time  13:20:57
 reading from relative humidity file     Time  13:20:57
 reading from wind file                  Time  13:20:57
 reading from wgn file                   Time  13:20:57
 reading from wx station file            Time  13:20:57
  Original Simulation            1   1  2005 Yr    1 of   14 Time  13:20:58
  Original Simulation            1   2  2005 Yr    1 of   14 Time  13:20:58
  Original Simulation            1   3  2005 Yr    1 of   14 Time  13:20:58
  Original Simulation            1   4  2005 Yr    1 of   14 Time  13:20:58
  Original Simulation            1   5  2005 Yr    1 of   14 Time  13:20:58
  Original Simulation            1   6  2005 Yr    1 of   14 Time  13:20:58
  Original Simulation            1   7  2005 Yr    1 of   14 Time  13:20:58
  Original Simulation            1   8  2005 Yr    1 of   14 Time  13:20:58
  Original Simulation            1   9  2005 Yr    1 of   14 Time  13:20:58
  Original Simulation            1  10  2005 Yr    1 of   14 Time  13:20:58
  Original Simulation            1  11  2005 Yr    1 of   14 Time  13:20:58
  Original Simulation            1  12  2005 Yr    1 of   14 Time  13:20:58
  Original Simulation            1  13  2005 Yr    1 of   14 Time  13:20:58
  Original Simulation            1  14  2005 Yr    1 of   14 Time  13:20:58
  Original Simulation            1  15  2005 Yr    1 of   14 Time  13:20:59
  Original Simulation            1  16  2005 Yr    1 of   14 Time  13:20:59
  Original Simulation            1  17  2005 Yr    1 of   14 Time  13:20:59
  Original Simulation            1  18  2005 Yr    1 of   14 Time  13:20:59
  Original Simulation            1  19  2005 Yr    1 of   14 Time  13:20:59
  Original Simulation            1  20  2005 Yr    1 of   14 Time  13:20:59
  Original Simulation            1  21  2005 Yr    1 of   14 Time  13:20:59
  Original Simulation            1  22  2005 Yr    1 of   14 Time  13:20:59
  Original Simulation            1  23  2005 Yr    1 of   14 Time  13:20:59
  Original Simulation            1  24  2005 Yr    1 of   14 Time  13:20:59
  Original Simulation            1  25  2005 Yr    1 of   14 Time  13:20:59
  Original Simulation            1  26  2005 Yr    1 of   14 Time  13:20:59
  Original Simulation            1  27  2005 Yr    1 of   14 Time  13:20:59
  Original Simulation            1  28  2005 Yr    1 of   14 Time  13:20:59
  Original Simulation            1  29  2005 Yr    1 of   14 Time  13:20:59
  Original Simulation            1  30  2005 Yr    1 of   14 Time  13:20:59
  Original Simulation            1  31  2005 Yr    1 of   14 Time  13:20:59
  Original Simulation            2   1  2005 Yr    1 of   14 Time  13:20:59
  Original Simulation            2   2  2005 Yr    1 of   14 Time  13:20:59
  Original Simulation            2   3  2005 Yr    1 of   14 Time  13:20:59
  Original Simulation            2   4  2005 Yr    1 of   14 Time  13:20:59
  Original Simulation            2   5  2005 Yr    1 of   14 Time  13:20:59
  Original Simulation            2   6  2005 Yr    1 of   14 Time  13:20:59
  Original Simulation            2   7  2005 Yr    1 of   14 Time  13:20:59
  Original Simulation            2   8  2005 Yr    1 of   14 Time  13:20:59
  Original Simulation            2   9  2005 Yr    1 of   14 Time  13:20:59
  Original Simulation            2  10  2005 Yr    1 of   14 Time  13:20:59
  Original Simulation            2  11  2005 Yr    1 of   14 Time  13:20:59
  Original Simulation            2  12  2005 Yr    1 of   14 Time  13:20:59
  Original Simulation            2  13  2005 Yr    1 of   14 Time  13:20:59
  Original Simulation            2  14  2005 Yr    1 of   14 Time  13:20:59
  Original Simulation            2  15  2005 Yr    1 of   14 Time  13:20:59
  Original Simulation            2  16  2005 Yr    1 of   14 Time  13:20:59
  Original Simulation            2  17  2005 Yr    1 of   14 Time  13:20:59
  Original Simulation            2  18  2005 Yr    1 of   14 Time  13:20:59
  Original Simulation            2  19  2005 Yr    1 of   14 Time  13:20:59
  Original Simulation            2  20  2005 Yr    1 of   14 Time  13:20:59
  Original Simulation            2  21  2005 Yr    1 of   14 Time  13:20:59
  Original Simulation            2  22  2005 Yr    1 of   14 Time  13:21: 0
  Original Simulation            2  23  2005 Yr    1 of   14 Time  13:21: 0
  Original Simulation            2  24  2005 Yr    1 of   14 Time  13:21: 0
  Original Simulation            2  25  2005 Yr    1 of   14 Time  13:21: 0
  Original Simulation            2  26  2005 Yr    1 of   14 Time  13:21: 0
  Original Simulation            2  27  2005 Yr    1 of   14 Time  13:21: 0
  Original Simulation            2  28  2005 Yr    1 of   14 Time  13:21: 0
  Original Simulation            3   1  2005 Yr    1 of   14 Time  13:21: 0
  Original Simulation            3   2  2005 Yr    1 of   14 Time  13:21: 0
  Original Simulation            3   3  2005 Yr    1 of   14 Time  13:21: 0
  Original Simulation            3   4  2005 Yr    1 of   14 Time  13:21: 0
  Original Simulation            3   5  2005 Yr    1 of   14 Time  13:21: 0
  Original Simulation            3   6  2005 Yr    1 of   14 Time  13:21: 0
  Original Simulation            3   7  2005 Yr    1 of   14 Time  13:21: 0
  Original Simulation            3   8  2005 Yr    1 of   14 Time  13:21: 0
  Original Simulation            3   9  2005 Yr    1 of   14 Time  13:21: 0
  Original Simulation            3  10  2005 Yr    1 of   14 Time  13:21: 0
  Original Simulation            3  11  2005 Yr    1 of   14 Time  13:21: 0
  Original Simulation            3  12  2005 Yr    1 of   14 Time  13:21: 0
  Original Simulation            3  13  2005 Yr    1 of   14 Time  13:21: 0
  Original Simulation            3  14  2005 Yr    1 of   14 Time  13:21: 0
  Original Simulation            3  15  2005 Yr    1 of   14 Time  13:21: 0
  Original Simulation            3  16  2005 Yr    1 of   14 Time  13:21: 0
  Original Simulation            3  17  2005 Yr    1 of   14 Time  13:21: 0
  Original Simulation            3  18  2005 Yr    1 of   14 Time  13:21: 0
  Original Simulation            3  19  2005 Yr    1 of   14 Time  13:21: 0
  Original Simulation            3  20  2005 Yr    1 of   14 Time  13:21: 0
  Original Simulation            3  21  2005 Yr    1 of   14 Time  13:21: 0
  Original Simulation            3  22  2005 Yr    1 of   14 Time  13:21: 0
  Original Simulation            3  23  2005 Yr    1 of   14 Time  13:21: 0
  Original Simulation            3  24  2005 Yr    1 of   14 Time  13:21: 0
  Original Simulation            3  25  2005 Yr    1 of   14 Time  13:21: 0
  Original Simulation            3  26  2005 Yr    1 of   14 Time  13:21: 0
  Original Simulation            3  27  2005 Yr    1 of   14 Time  13:21: 0
  Original Simulation            3  28  2005 Yr    1 of   14 Time  13:21: 0
  Original Simulation            3  29  2005 Yr    1 of   14 Time  13:21: 0
  Original Simulation            3  30  2005 Yr    1 of   14 Time  13:21: 0
  Original Simulation            3  31  2005 Yr    1 of   14 Time  13:21: 1
  Original Simulation            4   1  2005 Yr    1 of   14 Time  13:21: 1
  Original Simulation            4   2  2005 Yr    1 of   14 Time  13:21: 1
  Original Simulation            4   3  2005 Yr    1 of   14 Time  13:21: 1
  Original Simulation            4   4  2005 Yr    1 of   14 Time  13:21: 1
  Original Simulation            4   5  2005 Yr    1 of   14 Time  13:21: 1
  Original Simulation            4   6  2005 Yr    1 of   14 Time  13:21: 1
  Original Simulation            4   7  2005 Yr    1 of   14 Time  13:21: 1
  Original Simulation            4   8  2005 Yr    1 of   14 Time  13:21: 1
  Original Simulation            4   9  2005 Yr    1 of   14 Time  13:21: 1
  Original Simulation            4  10  2005 Yr    1 of   14 Time  13:21: 1
  Original Simulation            4  11  2005 Yr    1 of   14 Time  13:21: 1
  Original Simulation            4  12  2005 Yr    1 of   14 Time  13:21: 1
  Original Simulation            4  13  2005 Yr    1 of   14 Time  13:21: 1
  Original Simulation            4  14  2005 Yr    1 of   14 Time  13:21: 1
  Original Simulation            4  15  2005 Yr    1 of   14 Time  13:21: 1
  Original Simulation            4  16  2005 Yr    1 of   14 Time  13:21: 1
  Original Simulation            4  17  2005 Yr    1 of   14 Time  13:21: 1
  Original Simulation            4  18  2005 Yr    1 of   14 Time  13:21: 1
  Original Simulation            4  19  2005 Yr    1 of   14 Time  13:21: 1
  Original Simulation            4  20  2005 Yr    1 of   14 Time  13:21: 1
  Original Simulation            4  21  2005 Yr    1 of   14 Time  13:21: 1
  Original Simulation            4  22  2005 Yr    1 of   14 Time  13:21: 1
  Original Simulation            4  23  2005 Yr    1 of   14 Time  13:21: 1
  Original Simulation            4  24  2005 Yr    1 of   14 Time  13:21: 1
  Original Simulation            4  25  2005 Yr    1 of   14 Time  13:21: 1
  Original Simulation            4  26  2005 Yr    1 of   14 Time  13:21: 1
  Original Simulation            4  27  2005 Yr    1 of   14 Time  13:21: 1
  Original Simulation            4  28  2005 Yr    1 of   14 Time  13:21: 1
  Original Simulation            4  29  2005 Yr    1 of   14 Time  13:21: 1
  Original Simulation            4  30  2005 Yr    1 of   14 Time  13:21: 1
  Original Simulation            5   1  2005 Yr    1 of   14 Time  13:21: 1
  Original Simulation            5   2  2005 Yr    1 of   14 Time  13:21: 1
  Original Simulation            5   3  2005 Yr    1 of   14 Time  13:21: 1
  Original Simulation            5   4  2005 Yr    1 of   14 Time  13:21: 1
  Original Simulation            5   5  2005 Yr    1 of   14 Time  13:21: 1
  Original Simulation            5   6  2005 Yr    1 of   14 Time  13:21: 1
  Original Simulation            5   7  2005 Yr    1 of   14 Time  13:21: 2
  Original Simulation            5   8  2005 Yr    1 of   14 Time  13:21: 2
  Original Simulation            5   9  2005 Yr    1 of   14 Time  13:21: 2
  Original Simulation            5  10  2005 Yr    1 of   14 Time  13:21: 2
  Original Simulation            5  11  2005 Yr    1 of   14 Time  13:21: 2
  Original Simulation            5  12  2005 Yr    1 of   14 Time  13:21: 2
  Original Simulation            5  13  2005 Yr    1 of   14 Time  13:21: 2
  Original Simulation            5  14  2005 Yr    1 of   14 Time  13:21: 2
  Original Simulation            5  15  2005 Yr    1 of   14 Time  13:21: 2
  Original Simulation            5  16  2005 Yr    1 of   14 Time  13:21: 2
  Original Simulation            5  17  2005 Yr    1 of   14 Time  13:21: 2
  Original Simulation            5  18  2005 Yr    1 of   14 Time  13:21: 2
  Original Simulation            5  19  2005 Yr    1 of   14 Time  13:21: 2
  Original Simulation            5  20  2005 Yr    1 of   14 Time  13:21: 2
  Original Simulation            5  21  2005 Yr    1 of   14 Time  13:21: 2
  Original Simulation            5  22  2005 Yr    1 of   14 Time  13:21: 2
  Original Simulation            5  23  2005 Yr    1 of   14 Time  13:21: 2
  Original Simulation            5  24  2005 Yr    1 of   14 Time  13:21: 2
  Original Simulation            5  25  2005 Yr    1 of   14 Time  13:21: 2
  Original Simulation            5  26  2005 Yr    1 of   14 Time  13:21: 2
  Original Simulation            5  27  2005 Yr    1 of   14 Time  13:21: 2
  Original Simulation            5  28  2005 Yr    1 of   14 Time  13:21: 2
  Original Simulation            5  29  2005 Yr    1 of   14 Time  13:21: 2
  Original Simulation            5  30  2005 Yr    1 of   14 Time  13:21: 2
  Original Simulation            5  31  2005 Yr    1 of   14 Time  13:21: 2
  Original Simulation            6   1  2005 Yr    1 of   14 Time  13:21: 2
  Original Simulation            6   2  2005 Yr    1 of   14 Time  13:21: 2
  Original Simulation            6   3  2005 Yr    1 of   14 Time  13:21: 2
  Original Simulation            6   4  2005 Yr    1 of   14 Time  13:21: 2
  Original Simulation            6   5  2005 Yr    1 of   14 Time  13:21: 2
  Original Simulation            6   6  2005 Yr    1 of   14 Time  13:21: 2
  Original Simulation            6   7  2005 Yr    1 of   14 Time  13:21: 2
  Original Simulation            6   8  2005 Yr    1 of   14 Time  13:21: 2
  Original Simulation            6   9  2005 Yr    1 of   14 Time  13:21: 2
  Original Simulation            6  10  2005 Yr    1 of   14 Time  13:21: 2
  Original Simulation            6  11  2005 Yr    1 of   14 Time  13:21: 2
  Original Simulation            6  12  2005 Yr    1 of   14 Time  13:21: 2
  Original Simulation            6  13  2005 Yr    1 of   14 Time  13:21: 3
  Original Simulation            6  14  2005 Yr    1 of   14 Time  13:21: 3
  Original Simulation            6  15  2005 Yr    1 of   14 Time  13:21: 3
  Original Simulation            6  16  2005 Yr    1 of   14 Time  13:21: 3
  Original Simulation            6  17  2005 Yr    1 of   14 Time  13:21: 3
  Original Simulation            6  18  2005 Yr    1 of   14 Time  13:21: 3
  Original Simulation            6  19  2005 Yr    1 of   14 Time  13:21: 3
  Original Simulation            6  20  2005 Yr    1 of   14 Time  13:21: 3
  Original Simulation            6  21  2005 Yr    1 of   14 Time  13:21: 3
  Original Simulation            6  22  2005 Yr    1 of   14 Time  13:21: 3
  Original Simulation            6  23  2005 Yr    1 of   14 Time  13:21: 3
  Original Simulation            6  24  2005 Yr    1 of   14 Time  13:21: 3
  Original Simulation            6  25  2005 Yr    1 of   14 Time  13:21: 3
  Original Simulation            6  26  2005 Yr    1 of   14 Time  13:21: 3
  Original Simulation            6  27  2005 Yr    1 of   14 Time  13:21: 3
  Original Simulation            6  28  2005 Yr    1 of   14 Time  13:21: 3
  Original Simulation            6  29  2005 Yr    1 of   14 Time  13:21: 3
  Original Simulation            6  30  2005 Yr    1 of   14 Time  13:21: 3
  Original Simulation            7   1  2005 Yr    1 of   14 Time  13:21: 3
  Original Simulation            7   2  2005 Yr    1 of   14 Time  13:21: 3
  Original Simulation            7   3  2005 Yr    1 of   14 Time  13:21: 3
  Original Simulation            7   4  2005 Yr    1 of   14 Time  13:21: 3
  Original Simulation            7   5  2005 Yr    1 of   14 Time  13:21: 3
  Original Simulation            7   6  2005 Yr    1 of   14 Time  13:21: 3
  Original Simulation            7   7  2005 Yr    1 of   14 Time  13:21: 3
  Original Simulation            7   8  2005 Yr    1 of   14 Time  13:21: 3
  Original Simulation            7   9  2005 Yr    1 of   14 Time  13:21: 3
  Original Simulation            7  10  2005 Yr    1 of   14 Time  13:21: 3
  Original Simulation            7  11  2005 Yr    1 of   14 Time  13:21: 3
  Original Simulation            7  12  2005 Yr    1 of   14 Time  13:21: 3
  Original Simulation            7  13  2005 Yr    1 of   14 Time  13:21: 3
  Original Simulation            7  14  2005 Yr    1 of   14 Time  13:21: 3
  Original Simulation            7  15  2005 Yr    1 of   14 Time  13:21: 3
  Original Simulation            7  16  2005 Yr    1 of   14 Time  13:21: 3
  Original Simulation            7  17  2005 Yr    1 of   14 Time  13:21: 3
  Original Simulation            7  18  2005 Yr    1 of   14 Time  13:21: 4
  Original Simulation            7  19  2005 Yr    1 of   14 Time  13:21: 4
  Original Simulation            7  20  2005 Yr    1 of   14 Time  13:21: 4
  Original Simulation            7  21  2005 Yr    1 of   14 Time  13:21: 4
  Original Simulation            7  22  2005 Yr    1 of   14 Time  13:21: 4
  Original Simulation            7  23  2005 Yr    1 of   14 Time  13:21: 4
  Original Simulation            7  24  2005 Yr    1 of   14 Time  13:21: 4
  Original Simulation            7  25  2005 Yr    1 of   14 Time  13:21: 4
  Original Simulation            7  26  2005 Yr    1 of   14 Time  13:21: 4
  Original Simulation            7  27  2005 Yr    1 of   14 Time  13:21: 4
  Original Simulation            7  28  2005 Yr    1 of   14 Time  13:21: 4
  Original Simulation            7  29  2005 Yr    1 of   14 Time  13:21: 4
  Original Simulation            7  30  2005 Yr    1 of   14 Time  13:21: 4
  Original Simulation            7  31  2005 Yr    1 of   14 Time  13:21: 4
  Original Simulation            8   1  2005 Yr    1 of   14 Time  13:21: 4
  Original Simulation            8   2  2005 Yr    1 of   14 Time  13:21: 4
  Original Simulation            8   3  2005 Yr    1 of   14 Time  13:21: 4
  Original Simulation            8   4  2005 Yr    1 of   14 Time  13:21: 4
  Original Simulation            8   5  2005 Yr    1 of   14 Time  13:21: 4
  Original Simulation            8   6  2005 Yr    1 of   14 Time  13:21: 4
  Original Simulation            8   7  2005 Yr    1 of   14 Time  13:21: 4
  Original Simulation            8   8  2005 Yr    1 of   14 Time  13:21: 4
  Original Simulation            8   9  2005 Yr    1 of   14 Time  13:21: 4
  Original Simulation            8  10  2005 Yr    1 of   14 Time  13:21: 4
  Original Simulation            8  11  2005 Yr    1 of   14 Time  13:21: 4
  Original Simulation            8  12  2005 Yr    1 of   14 Time  13:21: 4
  Original Simulation            8  13  2005 Yr    1 of   14 Time  13:21: 4
  Original Simulation            8  14  2005 Yr    1 of   14 Time  13:21: 4
  Original Simulation            8  15  2005 Yr    1 of   14 Time  13:21: 4
  Original Simulation            8  16  2005 Yr    1 of   14 Time  13:21: 4
  Original Simulation            8  17  2005 Yr    1 of   14 Time  13:21: 4
  Original Simulation            8  18  2005 Yr    1 of   14 Time  13:21: 4
  Original Simulation            8  19  2005 Yr    1 of   14 Time  13:21: 4
  Original Simulation            8  20  2005 Yr    1 of   14 Time  13:21: 5
  Original Simulation            8  21  2005 Yr    1 of   14 Time  13:21: 5
  Original Simulation            8  22  2005 Yr    1 of   14 Time  13:21: 5
  Original Simulation            8  23  2005 Yr    1 of   14 Time  13:21: 5
  Original Simulation            8  24  2005 Yr    1 of   14 Time  13:21: 5
  Original Simulation            8  25  2005 Yr    1 of   14 Time  13:21: 5
  Original Simulation            8  26  2005 Yr    1 of   14 Time  13:21: 5
  Original Simulation            8  27  2005 Yr    1 of   14 Time  13:21: 5
  Original Simulation            8  28  2005 Yr    1 of   14 Time  13:21: 5
  Original Simulation            8  29  2005 Yr    1 of   14 Time  13:21: 5
  Original Simulation            8  30  2005 Yr    1 of   14 Time  13:21: 5
  Original Simulation            8  31  2005 Yr    1 of   14 Time  13:21: 5
  Original Simulation            9   1  2005 Yr    1 of   14 Time  13:21: 5
  Original Simulation            9   2  2005 Yr    1 of   14 Time  13:21: 5
  Original Simulation            9   3  2005 Yr    1 of   14 Time  13:21: 5
  Original Simulation            9   4  2005 Yr    1 of   14 Time  13:21: 5
  Original Simulation            9   5  2005 Yr    1 of   14 Time  13:21: 5
  Original Simulation            9   6  2005 Yr    1 of   14 Time  13:21: 5
  Original Simulation            9   7  2005 Yr    1 of   14 Time  13:21: 5
  Original Simulation            9   8  2005 Yr    1 of   14 Time  13:21: 5
  Original Simulation            9   9  2005 Yr    1 of   14 Time  13:21: 5
  Original Simulation            9  10  2005 Yr    1 of   14 Time  13:21: 5
  Original Simulation            9  11  2005 Yr    1 of   14 Time  13:21: 5
  Original Simulation            9  12  2005 Yr    1 of   14 Time  13:21: 5
  Original Simulation            9  13  2005 Yr    1 of   14 Time  13:21: 5
  Original Simulation            9  14  2005 Yr    1 of   14 Time  13:21: 5
  Original Simulation            9  15  2005 Yr    1 of   14 Time  13:21: 5
  Original Simulation            9  16  2005 Yr    1 of   14 Time  13:21: 5
  Original Simulation            9  17  2005 Yr    1 of   14 Time  13:21: 5
  Original Simulation            9  18  2005 Yr    1 of   14 Time  13:21: 5
  Original Simulation            9  19  2005 Yr    1 of   14 Time  13:21: 5
  Original Simulation            9  20  2005 Yr    1 of   14 Time  13:21: 5
  Original Simulation            9  21  2005 Yr    1 of   14 Time  13:21: 6
  Original Simulation            9  22  2005 Yr    1 of   14 Time  13:21: 6
  Original Simulation            9  23  2005 Yr    1 of   14 Time  13:21: 6
  Original Simulation            9  24  2005 Yr    1 of   14 Time  13:21: 6
  Original Simulation            9  25  2005 Yr    1 of   14 Time  13:21: 6
  Original Simulation            9  26  2005 Yr    1 of   14 Time  13:21: 6
  Original Simulation            9  27  2005 Yr    1 of   14 Time  13:21: 6
  Original Simulation            9  28  2005 Yr    1 of   14 Time  13:21: 6
  Original Simulation            9  29  2005 Yr    1 of   14 Time  13:21: 6
  Original Simulation            9  30  2005 Yr    1 of   14 Time  13:21: 6
  Original Simulation           10   1  2005 Yr    1 of   14 Time  13:21: 6
  Original Simulation           10   2  2005 Yr    1 of   14 Time  13:21: 6
  Original Simulation           10   3  2005 Yr    1 of   14 Time  13:21: 6
  Original Simulation           10   4  2005 Yr    1 of   14 Time  13:21: 6
  Original Simulation           10   5  2005 Yr    1 of   14 Time  13:21: 6
  Original Simulation           10   6  2005 Yr    1 of   14 Time  13:21: 6
  Original Simulation           10   7  2005 Yr    1 of   14 Time  13:21: 6
  Original Simulation           10   8  2005 Yr    1 of   14 Time  13:21: 6
  Original Simulation           10   9  2005 Yr    1 of   14 Time  13:21: 6
  Original Simulation           10  10  2005 Yr    1 of   14 Time  13:21: 6
  Original Simulation           10  11  2005 Yr    1 of   14 Time  13:21: 6
  Original Simulation           10  12  2005 Yr    1 of   14 Time  13:21: 6
  Original Simulation           10  13  2005 Yr    1 of   14 Time  13:21: 6
  Original Simulation           10  14  2005 Yr    1 of   14 Time  13:21: 6
  Original Simulation           10  15  2005 Yr    1 of   14 Time  13:21: 6
  Original Simulation           10  16  2005 Yr    1 of   14 Time  13:21: 6
  Original Simulation           10  17  2005 Yr    1 of   14 Time  13:21: 6
  Original Simulation           10  18  2005 Yr    1 of   14 Time  13:21: 6
  Original Simulation           10  19  2005 Yr    1 of   14 Time  13:21: 6
  Original Simulation           10  20  2005 Yr    1 of   14 Time  13:21: 6
  Original Simulation           10  21  2005 Yr    1 of   14 Time  13:21: 6
  Original Simulation           10  22  2005 Yr    1 of   14 Time  13:21: 6
  Original Simulation           10  23  2005 Yr    1 of   14 Time  13:21: 6
  Original Simulation           10  24  2005 Yr    1 of   14 Time  13:21: 6
  Original Simulation           10  25  2005 Yr    1 of   14 Time  13:21: 7
  Original Simulation           10  26  2005 Yr    1 of   14 Time  13:21: 7
  Original Simulation           10  27  2005 Yr    1 of   14 Time  13:21: 7
  Original Simulation           10  28  2005 Yr    1 of   14 Time  13:21: 7
  Original Simulation           10  29  2005 Yr    1 of   14 Time  13:21: 7
  Original Simulation           10  30  2005 Yr    1 of   14 Time  13:21: 7
  Original Simulation           10  31  2005 Yr    1 of   14 Time  13:21: 7
  Original Simulation           11   1  2005 Yr    1 of   14 Time  13:21: 7
  Original Simulation           11   2  2005 Yr    1 of   14 Time  13:21: 7
  Original Simulation           11   3  2005 Yr    1 of   14 Time  13:21: 7
  Original Simulation           11   4  2005 Yr    1 of   14 Time  13:21: 7
  Original Simulation           11   5  2005 Yr    1 of   14 Time  13:21: 7
  Original Simulation           11   6  2005 Yr    1 of   14 Time  13:21: 7
  Original Simulation           11   7  2005 Yr    1 of   14 Time  13:21: 7
  Original Simulation           11   8  2005 Yr    1 of   14 Time  13:21: 7
  Original Simulation           11   9  2005 Yr    1 of   14 Time  13:21: 7
  Original Simulation           11  10  2005 Yr    1 of   14 Time  13:21: 7
  Original Simulation           11  11  2005 Yr    1 of   14 Time  13:21: 7
  Original Simulation           11  12  2005 Yr    1 of   14 Time  13:21: 7
  Original Simulation           11  13  2005 Yr    1 of   14 Time  13:21: 7
  Original Simulation           11  14  2005 Yr    1 of   14 Time  13:21: 7
  Original Simulation           11  15  2005 Yr    1 of   14 Time  13:21: 7
  Original Simulation           11  16  2005 Yr    1 of   14 Time  13:21: 7
  Original Simulation           11  17  2005 Yr    1 of   14 Time  13:21: 7
  Original Simulation           11  18  2005 Yr    1 of   14 Time  13:21: 7
  Original Simulation           11  19  2005 Yr    1 of   14 Time  13:21: 7
  Original Simulation           11  20  2005 Yr    1 of   14 Time  13:21: 7
  Original Simulation           11  21  2005 Yr    1 of   14 Time  13:21: 7
  Original Simulation           11  22  2005 Yr    1 of   14 Time  13:21: 7
  Original Simulation           11  23  2005 Yr    1 of   14 Time  13:21: 7
  Original Simulation           11  24  2005 Yr    1 of   14 Time  13:21: 7
  Original Simulation           11  25  2005 Yr    1 of   14 Time  13:21: 7
  Original Simulation           11  26  2005 Yr    1 of   14 Time  13:21: 7
  Original Simulation           11  27  2005 Yr    1 of   14 Time  13:21: 7
  Original Simulation           11  28  2005 Yr    1 of   14 Time  13:21: 7
  Original Simulation           11  29  2005 Yr    1 of   14 Time  13:21: 7
  Original Simulation           11  30  2005 Yr    1 of   14 Time  13:21: 7
  Original Simulation           12   1  2005 Yr    1 of   14 Time  13:21: 8
  Original Simulation           12   2  2005 Yr    1 of   14 Time  13:21: 8
  Original Simulation           12   3  2005 Yr    1 of   14 Time  13:21: 8
  Original Simulation           12   4  2005 Yr    1 of   14 Time  13:21: 8
  Original Simulation           12   5  2005 Yr    1 of   14 Time  13:21: 8
  Original Simulation           12   6  2005 Yr    1 of   14 Time  13:21: 8
  Original Simulation           12   7  2005 Yr    1 of   14 Time  13:21: 8
  Original Simulation           12   8  2005 Yr    1 of   14 Time  13:21: 8
  Original Simulation           12   9  2005 Yr    1 of   14 Time  13:21: 8
  Original Simulation           12  10  2005 Yr    1 of   14 Time  13:21: 8
  Original Simulation           12  11  2005 Yr    1 of   14 Time  13:21: 8
  Original Simulation           12  12  2005 Yr    1 of   14 Time  13:21: 8
  Original Simulation           12  13  2005 Yr    1 of   14 Time  13:21: 8
  Original Simulation           12  14  2005 Yr    1 of   14 Time  13:21: 8
  Original Simulation           12  15  2005 Yr    1 of   14 Time  13:21: 8
  Original Simulation           12  16  2005 Yr    1 of   14 Time  13:21: 8
  Original Simulation           12  17  2005 Yr    1 of   14 Time  13:21: 8
  Original Simulation           12  18  2005 Yr    1 of   14 Time  13:21: 8
  Original Simulation           12  19  2005 Yr    1 of   14 Time  13:21: 8
  Original Simulation           12  20  2005 Yr    1 of   14 Time  13:21: 8
  Original Simulation           12  21  2005 Yr    1 of   14 Time  13:21: 8
  Original Simulation           12  22  2005 Yr    1 of   14 Time  13:21: 8
  Original Simulation           12  23  2005 Yr    1 of   14 Time  13:21: 8
  Original Simulation           12  24  2005 Yr    1 of   14 Time  13:21: 8
  Original Simulation           12  25  2005 Yr    1 of   14 Time  13:21: 8
  Original Simulation           12  26  2005 Yr    1 of   14 Time  13:21: 8
  Original Simulation           12  27  2005 Yr    1 of   14 Time  13:21: 8
  Original Simulation           12  28  2005 Yr    1 of   14 Time  13:21: 8
  Original Simulation           12  29  2005 Yr    1 of   14 Time  13:21: 8
  Original Simulation           12  30  2005 Yr    1 of   14 Time  13:21: 8
  Original Simulation           12  31  2005 Yr    1 of   14 Time  13:21: 8
  Original Simulation            1   1  2006 Yr    2 of   14 Time  13:21: 8
  Original Simulation            1   2  2006 Yr    2 of   14 Time  13:21: 8
  Original Simulation            1   3  2006 Yr    2 of   14 Time  13:21: 8
  Original Simulation            1   4  2006 Yr    2 of   14 Time  13:21: 8
  Original Simulation            1   5  2006 Yr    2 of   14 Time  13:21: 8
  Original Simulation            1   6  2006 Yr    2 of   14 Time  13:21: 8
  Original Simulation            1   7  2006 Yr    2 of   14 Time  13:21: 9
  Original Simulation            1   8  2006 Yr    2 of   14 Time  13:21: 9
  Original Simulation            1   9  2006 Yr    2 of   14 Time  13:21: 9
  Original Simulation            1  10  2006 Yr    2 of   14 Time  13:21: 9
  Original Simulation            1  11  2006 Yr    2 of   14 Time  13:21: 9
  Original Simulation            1  12  2006 Yr    2 of   14 Time  13:21: 9
  Original Simulation            1  13  2006 Yr    2 of   14 Time  13:21: 9
  Original Simulation            1  14  2006 Yr    2 of   14 Time  13:21: 9
  Original Simulation            1  15  2006 Yr    2 of   14 Time  13:21: 9
  Original Simulation            1  16  2006 Yr    2 of   14 Time  13:21: 9
  Original Simulation            1  17  2006 Yr    2 of   14 Time  13:21: 9
  Original Simulation            1  18  2006 Yr    2 of   14 Time  13:21: 9
  Original Simulation            1  19  2006 Yr    2 of   14 Time  13:21: 9
  Original Simulation            1  20  2006 Yr    2 of   14 Time  13:21: 9
  Original Simulation            1  21  2006 Yr    2 of   14 Time  13:21: 9
  Original Simulation            1  22  2006 Yr    2 of   14 Time  13:21: 9
  Original Simulation            1  23  2006 Yr    2 of   14 Time  13:21: 9
  Original Simulation            1  24  2006 Yr    2 of   14 Time  13:21: 9
  Original Simulation            1  25  2006 Yr    2 of   14 Time  13:21: 9
  Original Simulation            1  26  2006 Yr    2 of   14 Time  13:21: 9
  Original Simulation            1  27  2006 Yr    2 of   14 Time  13:21: 9
  Original Simulation            1  28  2006 Yr    2 of   14 Time  13:21: 9
  Original Simulation            1  29  2006 Yr    2 of   14 Time  13:21: 9
  Original Simulation            1  30  2006 Yr    2 of   14 Time  13:21: 9
  Original Simulation            1  31  2006 Yr    2 of   14 Time  13:21: 9
  Original Simulation            2   1  2006 Yr    2 of   14 Time  13:21: 9
  Original Simulation            2   2  2006 Yr    2 of   14 Time  13:21: 9
  Original Simulation            2   3  2006 Yr    2 of   14 Time  13:21: 9
  Original Simulation            2   4  2006 Yr    2 of   14 Time  13:21: 9
  Original Simulation            2   5  2006 Yr    2 of   14 Time  13:21: 9
  Original Simulation            2   6  2006 Yr    2 of   14 Time  13:21: 9
  Original Simulation            2   7  2006 Yr    2 of   14 Time  13:21: 9
  Original Simulation            2   8  2006 Yr    2 of   14 Time  13:21: 9
  Original Simulation            2   9  2006 Yr    2 of   14 Time  13:21: 9
  Original Simulation            2  10  2006 Yr    2 of   14 Time  13:21: 9
  Original Simulation            2  11  2006 Yr    2 of   14 Time  13:21: 9
  Original Simulation            2  12  2006 Yr    2 of   14 Time  13:21: 9
  Original Simulation            2  13  2006 Yr    2 of   14 Time  13:21: 9
  Original Simulation            2  14  2006 Yr    2 of   14 Time  13:21: 9
  Original Simulation            2  15  2006 Yr    2 of   14 Time  13:21:10
  Original Simulation            2  16  2006 Yr    2 of   14 Time  13:21:10
  Original Simulation            2  17  2006 Yr    2 of   14 Time  13:21:10
  Original Simulation            2  18  2006 Yr    2 of   14 Time  13:21:10
  Original Simulation            2  19  2006 Yr    2 of   14 Time  13:21:10
  Original Simulation            2  20  2006 Yr    2 of   14 Time  13:21:10
  Original Simulation            2  21  2006 Yr    2 of   14 Time  13:21:10
  Original Simulation            2  22  2006 Yr    2 of   14 Time  13:21:10
  Original Simulation            2  23  2006 Yr    2 of   14 Time  13:21:10
  Original Simulation            2  24  2006 Yr    2 of   14 Time  13:21:10
  Original Simulation            2  25  2006 Yr    2 of   14 Time  13:21:10
  Original Simulation            2  26  2006 Yr    2 of   14 Time  13:21:10
  Original Simulation            2  27  2006 Yr    2 of   14 Time  13:21:10
  Original Simulation            2  28  2006 Yr    2 of   14 Time  13:21:10
  Original Simulation            3   1  2006 Yr    2 of   14 Time  13:21:10
  Original Simulation            3   2  2006 Yr    2 of   14 Time  13:21:10
  Original Simulation            3   3  2006 Yr    2 of   14 Time  13:21:10
  Original Simulation            3   4  2006 Yr    2 of   14 Time  13:21:10
  Original Simulation            3   5  2006 Yr    2 of   14 Time  13:21:10
  Original Simulation            3   6  2006 Yr    2 of   14 Time  13:21:10
  Original Simulation            3   7  2006 Yr    2 of   14 Time  13:21:10
  Original Simulation            3   8  2006 Yr    2 of   14 Time  13:21:10
  Original Simulation            3   9  2006 Yr    2 of   14 Time  13:21:10
  Original Simulation            3  10  2006 Yr    2 of   14 Time  13:21:10
  Original Simulation            3  11  2006 Yr    2 of   14 Time  13:21:10
  Original Simulation            3  12  2006 Yr    2 of   14 Time  13:21:10
  Original Simulation            3  13  2006 Yr    2 of   14 Time  13:21:10
  Original Simulation            3  14  2006 Yr    2 of   14 Time  13:21:10
  Original Simulation            3  15  2006 Yr    2 of   14 Time  13:21:10
  Original Simulation            3  16  2006 Yr    2 of   14 Time  13:21:10
  Original Simulation            3  17  2006 Yr    2 of   14 Time  13:21:10
  Original Simulation            3  18  2006 Yr    2 of   14 Time  13:21:10
  Original Simulation            3  19  2006 Yr    2 of   14 Time  13:21:10
  Original Simulation            3  20  2006 Yr    2 of   14 Time  13:21:10
  Original Simulation            3  21  2006 Yr    2 of   14 Time  13:21:10
  Original Simulation            3  22  2006 Yr    2 of   14 Time  13:21:10
  Original Simulation            3  23  2006 Yr    2 of   14 Time  13:21:10
  Original Simulation            3  24  2006 Yr    2 of   14 Time  13:21:10
  Original Simulation            3  25  2006 Yr    2 of   14 Time  13:21:11
  Original Simulation            3  26  2006 Yr    2 of   14 Time  13:21:11
  Original Simulation            3  27  2006 Yr    2 of   14 Time  13:21:11
  Original Simulation            3  28  2006 Yr    2 of   14 Time  13:21:11
  Original Simulation            3  29  2006 Yr    2 of   14 Time  13:21:11
  Original Simulation            3  30  2006 Yr    2 of   14 Time  13:21:11
  Original Simulation            3  31  2006 Yr    2 of   14 Time  13:21:11
  Original Simulation            4   1  2006 Yr    2 of   14 Time  13:21:11
  Original Simulation            4   2  2006 Yr    2 of   14 Time  13:21:11
  Original Simulation            4   3  2006 Yr    2 of   14 Time  13:21:11
  Original Simulation            4   4  2006 Yr    2 of   14 Time  13:21:11
  Original Simulation            4   5  2006 Yr    2 of   14 Time  13:21:11
  Original Simulation            4   6  2006 Yr    2 of   14 Time  13:21:11
  Original Simulation            4   7  2006 Yr    2 of   14 Time  13:21:11
  Original Simulation            4   8  2006 Yr    2 of   14 Time  13:21:11
  Original Simulation            4   9  2006 Yr    2 of   14 Time  13:21:11
  Original Simulation            4  10  2006 Yr    2 of   14 Time  13:21:11
  Original Simulation            4  11  2006 Yr    2 of   14 Time  13:21:11
  Original Simulation            4  12  2006 Yr    2 of   14 Time  13:21:11
  Original Simulation            4  13  2006 Yr    2 of   14 Time  13:21:11
  Original Simulation            4  14  2006 Yr    2 of   14 Time  13:21:11
  Original Simulation            4  15  2006 Yr    2 of   14 Time  13:21:11
  Original Simulation            4  16  2006 Yr    2 of   14 Time  13:21:11
  Original Simulation            4  17  2006 Yr    2 of   14 Time  13:21:11
  Original Simulation            4  18  2006 Yr    2 of   14 Time  13:21:11
  Original Simulation            4  19  2006 Yr    2 of   14 Time  13:21:11
  Original Simulation            4  20  2006 Yr    2 of   14 Time  13:21:11
  Original Simulation            4  21  2006 Yr    2 of   14 Time  13:21:11
  Original Simulation            4  22  2006 Yr    2 of   14 Time  13:21:11
  Original Simulation            4  23  2006 Yr    2 of   14 Time  13:21:11
  Original Simulation            4  24  2006 Yr    2 of   14 Time  13:21:11
  Original Simulation            4  25  2006 Yr    2 of   14 Time  13:21:11
  Original Simulation            4  26  2006 Yr    2 of   14 Time  13:21:11
  Original Simulation            4  27  2006 Yr    2 of   14 Time  13:21:11
  Original Simulation            4  28  2006 Yr    2 of   14 Time  13:21:11
  Original Simulation            4  29  2006 Yr    2 of   14 Time  13:21:11
  Original Simulation            4  30  2006 Yr    2 of   14 Time  13:21:11
  Original Simulation            5   1  2006 Yr    2 of   14 Time  13:21:11
  Original Simulation            5   2  2006 Yr    2 of   14 Time  13:21:11
  Original Simulation            5   3  2006 Yr    2 of   14 Time  13:21:11
  Original Simulation            5   4  2006 Yr    2 of   14 Time  13:21:12
  Original Simulation            5   5  2006 Yr    2 of   14 Time  13:21:12
  Original Simulation            5   6  2006 Yr    2 of   14 Time  13:21:12
  Original Simulation            5   7  2006 Yr    2 of   14 Time  13:21:12
  Original Simulation            5   8  2006 Yr    2 of   14 Time  13:21:12
  Original Simulation            5   9  2006 Yr    2 of   14 Time  13:21:12
  Original Simulation            5  10  2006 Yr    2 of   14 Time  13:21:12
  Original Simulation            5  11  2006 Yr    2 of   14 Time  13:21:12
  Original Simulation            5  12  2006 Yr    2 of   14 Time  13:21:12
  Original Simulation            5  13  2006 Yr    2 of   14 Time  13:21:12
  Original Simulation            5  14  2006 Yr    2 of   14 Time  13:21:12
  Original Simulation            5  15  2006 Yr    2 of   14 Time  13:21:12
  Original Simulation            5  16  2006 Yr    2 of   14 Time  13:21:12
  Original Simulation            5  17  2006 Yr    2 of   14 Time  13:21:12
  Original Simulation            5  18  2006 Yr    2 of   14 Time  13:21:12
  Original Simulation            5  19  2006 Yr    2 of   14 Time  13:21:12
  Original Simulation            5  20  2006 Yr    2 of   14 Time  13:21:12
  Original Simulation            5  21  2006 Yr    2 of   14 Time  13:21:12
  Original Simulation            5  22  2006 Yr    2 of   14 Time  13:21:12
  Original Simulation            5  23  2006 Yr    2 of   14 Time  13:21:12
  Original Simulation            5  24  2006 Yr    2 of   14 Time  13:21:12
  Original Simulation            5  25  2006 Yr    2 of   14 Time  13:21:12
  Original Simulation            5  26  2006 Yr    2 of   14 Time  13:21:12
  Original Simulation            5  27  2006 Yr    2 of   14 Time  13:21:12
  Original Simulation            5  28  2006 Yr    2 of   14 Time  13:21:12
  Original Simulation            5  29  2006 Yr    2 of   14 Time  13:21:12
  Original Simulation            5  30  2006 Yr    2 of   14 Time  13:21:12
  Original Simulation            5  31  2006 Yr    2 of   14 Time  13:21:12
  Original Simulation            6   1  2006 Yr    2 of   14 Time  13:21:12
  Original Simulation            6   2  2006 Yr    2 of   14 Time  13:21:12
  Original Simulation            6   3  2006 Yr    2 of   14 Time  13:21:12
  Original Simulation            6   4  2006 Yr    2 of   14 Time  13:21:12
  Original Simulation            6   5  2006 Yr    2 of   14 Time  13:21:12
  Original Simulation            6   6  2006 Yr    2 of   14 Time  13:21:12
  Original Simulation            6   7  2006 Yr    2 of   14 Time  13:21:12
  Original Simulation            6   8  2006 Yr    2 of   14 Time  13:21:12
  Original Simulation            6   9  2006 Yr    2 of   14 Time  13:21:12
  Original Simulation            6  10  2006 Yr    2 of   14 Time  13:21:13
  Original Simulation            6  11  2006 Yr    2 of   14 Time  13:21:13
  Original Simulation            6  12  2006 Yr    2 of   14 Time  13:21:13
  Original Simulation            6  13  2006 Yr    2 of   14 Time  13:21:13
  Original Simulation            6  14  2006 Yr    2 of   14 Time  13:21:13
  Original Simulation            6  15  2006 Yr    2 of   14 Time  13:21:13
  Original Simulation            6  16  2006 Yr    2 of   14 Time  13:21:13
  Original Simulation            6  17  2006 Yr    2 of   14 Time  13:21:13
  Original Simulation            6  18  2006 Yr    2 of   14 Time  13:21:13
  Original Simulation            6  19  2006 Yr    2 of   14 Time  13:21:13
  Original Simulation            6  20  2006 Yr    2 of   14 Time  13:21:13
  Original Simulation            6  21  2006 Yr    2 of   14 Time  13:21:13
  Original Simulation            6  22  2006 Yr    2 of   14 Time  13:21:13
  Original Simulation            6  23  2006 Yr    2 of   14 Time  13:21:13
  Original Simulation            6  24  2006 Yr    2 of   14 Time  13:21:13
  Original Simulation            6  25  2006 Yr    2 of   14 Time  13:21:13
  Original Simulation            6  26  2006 Yr    2 of   14 Time  13:21:13
  Original Simulation            6  27  2006 Yr    2 of   14 Time  13:21:13
  Original Simulation            6  28  2006 Yr    2 of   14 Time  13:21:13
  Original Simulation            6  29  2006 Yr    2 of   14 Time  13:21:13
  Original Simulation            6  30  2006 Yr    2 of   14 Time  13:21:13
  Original Simulation            7   1  2006 Yr    2 of   14 Time  13:21:13
  Original Simulation            7   2  2006 Yr    2 of   14 Time  13:21:13
  Original Simulation            7   3  2006 Yr    2 of   14 Time  13:21:13
  Original Simulation            7   4  2006 Yr    2 of   14 Time  13:21:13
  Original Simulation            7   5  2006 Yr    2 of   14 Time  13:21:13
  Original Simulation            7   6  2006 Yr    2 of   14 Time  13:21:13
  Original Simulation            7   7  2006 Yr    2 of   14 Time  13:21:13
  Original Simulation            7   8  2006 Yr    2 of   14 Time  13:21:13
  Original Simulation            7   9  2006 Yr    2 of   14 Time  13:21:13
  Original Simulation            7  10  2006 Yr    2 of   14 Time  13:21:13
  Original Simulation            7  11  2006 Yr    2 of   14 Time  13:21:13
  Original Simulation            7  12  2006 Yr    2 of   14 Time  13:21:13
  Original Simulation            7  13  2006 Yr    2 of   14 Time  13:21:13
  Original Simulation            7  14  2006 Yr    2 of   14 Time  13:21:13
  Original Simulation            7  15  2006 Yr    2 of   14 Time  13:21:13
  Original Simulation            7  16  2006 Yr    2 of   14 Time  13:21:13
  Original Simulation            7  17  2006 Yr    2 of   14 Time  13:21:14
  Original Simulation            7  18  2006 Yr    2 of   14 Time  13:21:14
  Original Simulation            7  19  2006 Yr    2 of   14 Time  13:21:14
  Original Simulation            7  20  2006 Yr    2 of   14 Time  13:21:14
  Original Simulation            7  21  2006 Yr    2 of   14 Time  13:21:14
  Original Simulation            7  22  2006 Yr    2 of   14 Time  13:21:14
  Original Simulation            7  23  2006 Yr    2 of   14 Time  13:21:14
  Original Simulation            7  24  2006 Yr    2 of   14 Time  13:21:14
  Original Simulation            7  25  2006 Yr    2 of   14 Time  13:21:14
  Original Simulation            7  26  2006 Yr    2 of   14 Time  13:21:14
  Original Simulation            7  27  2006 Yr    2 of   14 Time  13:21:14
  Original Simulation            7  28  2006 Yr    2 of   14 Time  13:21:14
  Original Simulation            7  29  2006 Yr    2 of   14 Time  13:21:14
  Original Simulation            7  30  2006 Yr    2 of   14 Time  13:21:14
  Original Simulation            7  31  2006 Yr    2 of   14 Time  13:21:14
  Original Simulation            8   1  2006 Yr    2 of   14 Time  13:21:14
  Original Simulation            8   2  2006 Yr    2 of   14 Time  13:21:14
  Original Simulation            8   3  2006 Yr    2 of   14 Time  13:21:14
  Original Simulation            8   4  2006 Yr    2 of   14 Time  13:21:14
  Original Simulation            8   5  2006 Yr    2 of   14 Time  13:21:14
  Original Simulation            8   6  2006 Yr    2 of   14 Time  13:21:14
  Original Simulation            8   7  2006 Yr    2 of   14 Time  13:21:14
  Original Simulation            8   8  2006 Yr    2 of   14 Time  13:21:14
  Original Simulation            8   9  2006 Yr    2 of   14 Time  13:21:14
  Original Simulation            8  10  2006 Yr    2 of   14 Time  13:21:14
  Original Simulation            8  11  2006 Yr    2 of   14 Time  13:21:14
  Original Simulation            8  12  2006 Yr    2 of   14 Time  13:21:14
  Original Simulation            8  13  2006 Yr    2 of   14 Time  13:21:14
  Original Simulation            8  14  2006 Yr    2 of   14 Time  13:21:14
  Original Simulation            8  15  2006 Yr    2 of   14 Time  13:21:14
  Original Simulation            8  16  2006 Yr    2 of   14 Time  13:21:14
  Original Simulation            8  17  2006 Yr    2 of   14 Time  13:21:14
  Original Simulation            8  18  2006 Yr    2 of   14 Time  13:21:14
  Original Simulation            8  19  2006 Yr    2 of   14 Time  13:21:14
  Original Simulation            8  20  2006 Yr    2 of   14 Time  13:21:14
  Original Simulation            8  21  2006 Yr    2 of   14 Time  13:21:14
  Original Simulation            8  22  2006 Yr    2 of   14 Time  13:21:15
  Original Simulation            8  23  2006 Yr    2 of   14 Time  13:21:15
  Original Simulation            8  24  2006 Yr    2 of   14 Time  13:21:15
  Original Simulation            8  25  2006 Yr    2 of   14 Time  13:21:15
  Original Simulation            8  26  2006 Yr    2 of   14 Time  13:21:15
  Original Simulation            8  27  2006 Yr    2 of   14 Time  13:21:15
  Original Simulation            8  28  2006 Yr    2 of   14 Time  13:21:15
  Original Simulation            8  29  2006 Yr    2 of   14 Time  13:21:15
  Original Simulation            8  30  2006 Yr    2 of   14 Time  13:21:15
  Original Simulation            8  31  2006 Yr    2 of   14 Time  13:21:15
  Original Simulation            9   1  2006 Yr    2 of   14 Time  13:21:15
  Original Simulation            9   2  2006 Yr    2 of   14 Time  13:21:15
  Original Simulation            9   3  2006 Yr    2 of   14 Time  13:21:15
  Original Simulation            9   4  2006 Yr    2 of   14 Time  13:21:15
  Original Simulation            9   5  2006 Yr    2 of   14 Time  13:21:15
  Original Simulation            9   6  2006 Yr    2 of   14 Time  13:21:15
  Original Simulation            9   7  2006 Yr    2 of   14 Time  13:21:15
  Original Simulation            9   8  2006 Yr    2 of   14 Time  13:21:15
  Original Simulation            9   9  2006 Yr    2 of   14 Time  13:21:15
  Original Simulation            9  10  2006 Yr    2 of   14 Time  13:21:15
  Original Simulation            9  11  2006 Yr    2 of   14 Time  13:21:15
  Original Simulation            9  12  2006 Yr    2 of   14 Time  13:21:15
  Original Simulation            9  13  2006 Yr    2 of   14 Time  13:21:15
  Original Simulation            9  14  2006 Yr    2 of   14 Time  13:21:15
  Original Simulation            9  15  2006 Yr    2 of   14 Time  13:21:15
  Original Simulation            9  16  2006 Yr    2 of   14 Time  13:21:15
  Original Simulation            9  17  2006 Yr    2 of   14 Time  13:21:15
  Original Simulation            9  18  2006 Yr    2 of   14 Time  13:21:15
  Original Simulation            9  19  2006 Yr    2 of   14 Time  13:21:15
  Original Simulation            9  20  2006 Yr    2 of   14 Time  13:21:15
  Original Simulation            9  21  2006 Yr    2 of   14 Time  13:21:15
  Original Simulation            9  22  2006 Yr    2 of   14 Time  13:21:15
  Original Simulation            9  23  2006 Yr    2 of   14 Time  13:21:15
  Original Simulation            9  24  2006 Yr    2 of   14 Time  13:21:15
  Original Simulation            9  25  2006 Yr    2 of   14 Time  13:21:15
  Original Simulation            9  26  2006 Yr    2 of   14 Time  13:21:15
  Original Simulation            9  27  2006 Yr    2 of   14 Time  13:21:15
  Original Simulation            9  28  2006 Yr    2 of   14 Time  13:21:16
  Original Simulation            9  29  2006 Yr    2 of   14 Time  13:21:16
  Original Simulation            9  30  2006 Yr    2 of   14 Time  13:21:16
  Original Simulation           10   1  2006 Yr    2 of   14 Time  13:21:16
  Original Simulation           10   2  2006 Yr    2 of   14 Time  13:21:16
  Original Simulation           10   3  2006 Yr    2 of   14 Time  13:21:16
  Original Simulation           10   4  2006 Yr    2 of   14 Time  13:21:16
  Original Simulation           10   5  2006 Yr    2 of   14 Time  13:21:16
  Original Simulation           10   6  2006 Yr    2 of   14 Time  13:21:16
  Original Simulation           10   7  2006 Yr    2 of   14 Time  13:21:16
  Original Simulation           10   8  2006 Yr    2 of   14 Time  13:21:16
  Original Simulation           10   9  2006 Yr    2 of   14 Time  13:21:16
  Original Simulation           10  10  2006 Yr    2 of   14 Time  13:21:16
  Original Simulation           10  11  2006 Yr    2 of   14 Time  13:21:16
  Original Simulation           10  12  2006 Yr    2 of   14 Time  13:21:16
  Original Simulation           10  13  2006 Yr    2 of   14 Time  13:21:16
  Original Simulation           10  14  2006 Yr    2 of   14 Time  13:21:16
  Original Simulation           10  15  2006 Yr    2 of   14 Time  13:21:16
  Original Simulation           10  16  2006 Yr    2 of   14 Time  13:21:16
  Original Simulation           10  17  2006 Yr    2 of   14 Time  13:21:16
  Original Simulation           10  18  2006 Yr    2 of   14 Time  13:21:16
  Original Simulation           10  19  2006 Yr    2 of   14 Time  13:21:16
  Original Simulation           10  20  2006 Yr    2 of   14 Time  13:21:16
  Original Simulation           10  21  2006 Yr    2 of   14 Time  13:21:16
  Original Simulation           10  22  2006 Yr    2 of   14 Time  13:21:16
  Original Simulation           10  23  2006 Yr    2 of   14 Time  13:21:16
  Original Simulation           10  24  2006 Yr    2 of   14 Time  13:21:16
  Original Simulation           10  25  2006 Yr    2 of   14 Time  13:21:16
  Original Simulation           10  26  2006 Yr    2 of   14 Time  13:21:16
  Original Simulation           10  27  2006 Yr    2 of   14 Time  13:21:16
  Original Simulation           10  28  2006 Yr    2 of   14 Time  13:21:16
  Original Simulation           10  29  2006 Yr    2 of   14 Time  13:21:16
  Original Simulation           10  30  2006 Yr    2 of   14 Time  13:21:16
  Original Simulation           10  31  2006 Yr    2 of   14 Time  13:21:16
  Original Simulation           11   1  2006 Yr    2 of   14 Time  13:21:16
  Original Simulation           11   2  2006 Yr    2 of   14 Time  13:21:16
  Original Simulation           11   3  2006 Yr    2 of   14 Time  13:21:16
  Original Simulation           11   4  2006 Yr    2 of   14 Time  13:21:16
  Original Simulation           11   5  2006 Yr    2 of   14 Time  13:21:17
  Original Simulation           11   6  2006 Yr    2 of   14 Time  13:21:17
  Original Simulation           11   7  2006 Yr    2 of   14 Time  13:21:17
  Original Simulation           11   8  2006 Yr    2 of   14 Time  13:21:17
  Original Simulation           11   9  2006 Yr    2 of   14 Time  13:21:17
  Original Simulation           11  10  2006 Yr    2 of   14 Time  13:21:17
  Original Simulation           11  11  2006 Yr    2 of   14 Time  13:21:17
  Original Simulation           11  12  2006 Yr    2 of   14 Time  13:21:17
  Original Simulation           11  13  2006 Yr    2 of   14 Time  13:21:17
  Original Simulation           11  14  2006 Yr    2 of   14 Time  13:21:17
  Original Simulation           11  15  2006 Yr    2 of   14 Time  13:21:17
  Original Simulation           11  16  2006 Yr    2 of   14 Time  13:21:17
  Original Simulation           11  17  2006 Yr    2 of   14 Time  13:21:17
  Original Simulation           11  18  2006 Yr    2 of   14 Time  13:21:17
  Original Simulation           11  19  2006 Yr    2 of   14 Time  13:21:17
  Original Simulation           11  20  2006 Yr    2 of   14 Time  13:21:17
  Original Simulation           11  21  2006 Yr    2 of   14 Time  13:21:17
  Original Simulation           11  22  2006 Yr    2 of   14 Time  13:21:17
  Original Simulation           11  23  2006 Yr    2 of   14 Time  13:21:17
  Original Simulation           11  24  2006 Yr    2 of   14 Time  13:21:17
  Original Simulation           11  25  2006 Yr    2 of   14 Time  13:21:17
  Original Simulation           11  26  2006 Yr    2 of   14 Time  13:21:17
  Original Simulation           11  27  2006 Yr    2 of   14 Time  13:21:17
  Original Simulation           11  28  2006 Yr    2 of   14 Time  13:21:17
  Original Simulation           11  29  2006 Yr    2 of   14 Time  13:21:17
  Original Simulation           11  30  2006 Yr    2 of   14 Time  13:21:17
  Original Simulation           12   1  2006 Yr    2 of   14 Time  13:21:17
  Original Simulation           12   2  2006 Yr    2 of   14 Time  13:21:17
  Original Simulation           12   3  2006 Yr    2 of   14 Time  13:21:17
  Original Simulation           12   4  2006 Yr    2 of   14 Time  13:21:17
  Original Simulation           12   5  2006 Yr    2 of   14 Time  13:21:17
  Original Simulation           12   6  2006 Yr    2 of   14 Time  13:21:17
  Original Simulation           12   7  2006 Yr    2 of   14 Time  13:21:17
  Original Simulation           12   8  2006 Yr    2 of   14 Time  13:21:17
  Original Simulation           12   9  2006 Yr    2 of   14 Time  13:21:17
  Original Simulation           12  10  2006 Yr    2 of   14 Time  13:21:17
  Original Simulation           12  11  2006 Yr    2 of   14 Time  13:21:17
  Original Simulation           12  12  2006 Yr    2 of   14 Time  13:21:17
  Original Simulation           12  13  2006 Yr    2 of   14 Time  13:21:18
  Original Simulation           12  14  2006 Yr    2 of   14 Time  13:21:18
  Original Simulation           12  15  2006 Yr    2 of   14 Time  13:21:18
  Original Simulation           12  16  2006 Yr    2 of   14 Time  13:21:18
  Original Simulation           12  17  2006 Yr    2 of   14 Time  13:21:18
  Original Simulation           12  18  2006 Yr    2 of   14 Time  13:21:18
  Original Simulation           12  19  2006 Yr    2 of   14 Time  13:21:18
  Original Simulation           12  20  2006 Yr    2 of   14 Time  13:21:18
  Original Simulation           12  21  2006 Yr    2 of   14 Time  13:21:18
  Original Simulation           12  22  2006 Yr    2 of   14 Time  13:21:18
  Original Simulation           12  23  2006 Yr    2 of   14 Time  13:21:18
  Original Simulation           12  24  2006 Yr    2 of   14 Time  13:21:18
  Original Simulation           12  25  2006 Yr    2 of   14 Time  13:21:18
  Original Simulation           12  26  2006 Yr    2 of   14 Time  13:21:18
  Original Simulation           12  27  2006 Yr    2 of   14 Time  13:21:18
  Original Simulation           12  28  2006 Yr    2 of   14 Time  13:21:18
  Original Simulation           12  29  2006 Yr    2 of   14 Time  13:21:18
  Original Simulation           12  30  2006 Yr    2 of   14 Time  13:21:18
  Original Simulation           12  31  2006 Yr    2 of   14 Time  13:21:18
  Original Simulation            1   1  2007 Yr    3 of   14 Time  13:21:18
  Original Simulation            1   2  2007 Yr    3 of   14 Time  13:21:18
  Original Simulation            1   3  2007 Yr    3 of   14 Time  13:21:18
  Original Simulation            1   4  2007 Yr    3 of   14 Time  13:21:18
  Original Simulation            1   5  2007 Yr    3 of   14 Time  13:21:18
  Original Simulation            1   6  2007 Yr    3 of   14 Time  13:21:18
  Original Simulation            1   7  2007 Yr    3 of   14 Time  13:21:18
  Original Simulation            1   8  2007 Yr    3 of   14 Time  13:21:18
  Original Simulation            1   9  2007 Yr    3 of   14 Time  13:21:18
  Original Simulation            1  10  2007 Yr    3 of   14 Time  13:21:18
  Original Simulation            1  11  2007 Yr    3 of   14 Time  13:21:18
  Original Simulation            1  12  2007 Yr    3 of   14 Time  13:21:18
  Original Simulation            1  13  2007 Yr    3 of   14 Time  13:21:18
  Original Simulation            1  14  2007 Yr    3 of   14 Time  13:21:18
  Original Simulation            1  15  2007 Yr    3 of   14 Time  13:21:18
  Original Simulation            1  16  2007 Yr    3 of   14 Time  13:21:18
  Original Simulation            1  17  2007 Yr    3 of   14 Time  13:21:18
  Original Simulation            1  18  2007 Yr    3 of   14 Time  13:21:18
  Original Simulation            1  19  2007 Yr    3 of   14 Time  13:21:18
  Original Simulation            1  20  2007 Yr    3 of   14 Time  13:21:18
  Original Simulation            1  21  2007 Yr    3 of   14 Time  13:21:18
  Original Simulation            1  22  2007 Yr    3 of   14 Time  13:21:19
  Original Simulation            1  23  2007 Yr    3 of   14 Time  13:21:19
  Original Simulation            1  24  2007 Yr    3 of   14 Time  13:21:19
  Original Simulation            1  25  2007 Yr    3 of   14 Time  13:21:19
  Original Simulation            1  26  2007 Yr    3 of   14 Time  13:21:19
  Original Simulation            1  27  2007 Yr    3 of   14 Time  13:21:19
  Original Simulation            1  28  2007 Yr    3 of   14 Time  13:21:19
  Original Simulation            1  29  2007 Yr    3 of   14 Time  13:21:19
  Original Simulation            1  30  2007 Yr    3 of   14 Time  13:21:19
  Original Simulation            1  31  2007 Yr    3 of   14 Time  13:21:19
  Original Simulation            2   1  2007 Yr    3 of   14 Time  13:21:19
  Original Simulation            2   2  2007 Yr    3 of   14 Time  13:21:19
  Original Simulation            2   3  2007 Yr    3 of   14 Time  13:21:19
  Original Simulation            2   4  2007 Yr    3 of   14 Time  13:21:19
  Original Simulation            2   5  2007 Yr    3 of   14 Time  13:21:19
  Original Simulation            2   6  2007 Yr    3 of   14 Time  13:21:19
  Original Simulation            2   7  2007 Yr    3 of   14 Time  13:21:19
  Original Simulation            2   8  2007 Yr    3 of   14 Time  13:21:19
  Original Simulation            2   9  2007 Yr    3 of   14 Time  13:21:19
  Original Simulation            2  10  2007 Yr    3 of   14 Time  13:21:19
  Original Simulation            2  11  2007 Yr    3 of   14 Time  13:21:19
  Original Simulation            2  12  2007 Yr    3 of   14 Time  13:21:19
  Original Simulation            2  13  2007 Yr    3 of   14 Time  13:21:19
  Original Simulation            2  14  2007 Yr    3 of   14 Time  13:21:19
  Original Simulation            2  15  2007 Yr    3 of   14 Time  13:21:19
  Original Simulation            2  16  2007 Yr    3 of   14 Time  13:21:19
  Original Simulation            2  17  2007 Yr    3 of   14 Time  13:21:19
  Original Simulation            2  18  2007 Yr    3 of   14 Time  13:21:19
  Original Simulation            2  19  2007 Yr    3 of   14 Time  13:21:19
  Original Simulation            2  20  2007 Yr    3 of   14 Time  13:21:19
  Original Simulation            2  21  2007 Yr    3 of   14 Time  13:21:19
  Original Simulation            2  22  2007 Yr    3 of   14 Time  13:21:19
  Original Simulation            2  23  2007 Yr    3 of   14 Time  13:21:19
  Original Simulation            2  24  2007 Yr    3 of   14 Time  13:21:19
  Original Simulation            2  25  2007 Yr    3 of   14 Time  13:21:19
  Original Simulation            2  26  2007 Yr    3 of   14 Time  13:21:19
  Original Simulation            2  27  2007 Yr    3 of   14 Time  13:21:19
  Original Simulation            2  28  2007 Yr    3 of   14 Time  13:21:19
  Original Simulation            3   1  2007 Yr    3 of   14 Time  13:21:19
  Original Simulation            3   2  2007 Yr    3 of   14 Time  13:21:20
  Original Simulation            3   3  2007 Yr    3 of   14 Time  13:21:20
  Original Simulation            3   4  2007 Yr    3 of   14 Time  13:21:20
  Original Simulation            3   5  2007 Yr    3 of   14 Time  13:21:20
  Original Simulation            3   6  2007 Yr    3 of   14 Time  13:21:20
  Original Simulation            3   7  2007 Yr    3 of   14 Time  13:21:20
  Original Simulation            3   8  2007 Yr    3 of   14 Time  13:21:20
  Original Simulation            3   9  2007 Yr    3 of   14 Time  13:21:20
  Original Simulation            3  10  2007 Yr    3 of   14 Time  13:21:20
  Original Simulation            3  11  2007 Yr    3 of   14 Time  13:21:20
  Original Simulation            3  12  2007 Yr    3 of   14 Time  13:21:20
  Original Simulation            3  13  2007 Yr    3 of   14 Time  13:21:20
  Original Simulation            3  14  2007 Yr    3 of   14 Time  13:21:20
  Original Simulation            3  15  2007 Yr    3 of   14 Time  13:21:20
  Original Simulation            3  16  2007 Yr    3 of   14 Time  13:21:20
  Original Simulation            3  17  2007 Yr    3 of   14 Time  13:21:20
  Original Simulation            3  18  2007 Yr    3 of   14 Time  13:21:20
  Original Simulation            3  19  2007 Yr    3 of   14 Time  13:21:20
  Original Simulation            3  20  2007 Yr    3 of   14 Time  13:21:20
  Original Simulation            3  21  2007 Yr    3 of   14 Time  13:21:20
  Original Simulation            3  22  2007 Yr    3 of   14 Time  13:21:20
  Original Simulation            3  23  2007 Yr    3 of   14 Time  13:21:20
  Original Simulation            3  24  2007 Yr    3 of   14 Time  13:21:20
  Original Simulation            3  25  2007 Yr    3 of   14 Time  13:21:20
  Original Simulation            3  26  2007 Yr    3 of   14 Time  13:21:20
  Original Simulation            3  27  2007 Yr    3 of   14 Time  13:21:20
  Original Simulation            3  28  2007 Yr    3 of   14 Time  13:21:20
  Original Simulation            3  29  2007 Yr    3 of   14 Time  13:21:20
  Original Simulation            3  30  2007 Yr    3 of   14 Time  13:21:20
  Original Simulation            3  31  2007 Yr    3 of   14 Time  13:21:20
  Original Simulation            4   1  2007 Yr    3 of   14 Time  13:21:20
  Original Simulation            4   2  2007 Yr    3 of   14 Time  13:21:20
  Original Simulation            4   3  2007 Yr    3 of   14 Time  13:21:20
  Original Simulation            4   4  2007 Yr    3 of   14 Time  13:21:20
  Original Simulation            4   5  2007 Yr    3 of   14 Time  13:21:20
  Original Simulation            4   6  2007 Yr    3 of   14 Time  13:21:20
  Original Simulation            4   7  2007 Yr    3 of   14 Time  13:21:20
  Original Simulation            4   8  2007 Yr    3 of   14 Time  13:21:21
  Original Simulation            4   9  2007 Yr    3 of   14 Time  13:21:21
  Original Simulation            4  10  2007 Yr    3 of   14 Time  13:21:21
  Original Simulation            4  11  2007 Yr    3 of   14 Time  13:21:21
  Original Simulation            4  12  2007 Yr    3 of   14 Time  13:21:21
  Original Simulation            4  13  2007 Yr    3 of   14 Time  13:21:21
  Original Simulation            4  14  2007 Yr    3 of   14 Time  13:21:21
  Original Simulation            4  15  2007 Yr    3 of   14 Time  13:21:21
  Original Simulation            4  16  2007 Yr    3 of   14 Time  13:21:21
  Original Simulation            4  17  2007 Yr    3 of   14 Time  13:21:21
  Original Simulation            4  18  2007 Yr    3 of   14 Time  13:21:21
  Original Simulation            4  19  2007 Yr    3 of   14 Time  13:21:21
  Original Simulation            4  20  2007 Yr    3 of   14 Time  13:21:21
  Original Simulation            4  21  2007 Yr    3 of   14 Time  13:21:21
  Original Simulation            4  22  2007 Yr    3 of   14 Time  13:21:21
  Original Simulation            4  23  2007 Yr    3 of   14 Time  13:21:21
  Original Simulation            4  24  2007 Yr    3 of   14 Time  13:21:21
  Original Simulation            4  25  2007 Yr    3 of   14 Time  13:21:21
  Original Simulation            4  26  2007 Yr    3 of   14 Time  13:21:21
  Original Simulation            4  27  2007 Yr    3 of   14 Time  13:21:21
  Original Simulation            4  28  2007 Yr    3 of   14 Time  13:21:21
  Original Simulation            4  29  2007 Yr    3 of   14 Time  13:21:21
  Original Simulation            4  30  2007 Yr    3 of   14 Time  13:21:21
  Original Simulation            5   1  2007 Yr    3 of   14 Time  13:21:21
  Original Simulation            5   2  2007 Yr    3 of   14 Time  13:21:21
  Original Simulation            5   3  2007 Yr    3 of   14 Time  13:21:21
  Original Simulation            5   4  2007 Yr    3 of   14 Time  13:21:21
  Original Simulation            5   5  2007 Yr    3 of   14 Time  13:21:21
  Original Simulation            5   6  2007 Yr    3 of   14 Time  13:21:21
  Original Simulation            5   7  2007 Yr    3 of   14 Time  13:21:21
  Original Simulation            5   8  2007 Yr    3 of   14 Time  13:21:21
  Original Simulation            5   9  2007 Yr    3 of   14 Time  13:21:21
  Original Simulation            5  10  2007 Yr    3 of   14 Time  13:21:21
  Original Simulation            5  11  2007 Yr    3 of   14 Time  13:21:21
  Original Simulation            5  12  2007 Yr    3 of   14 Time  13:21:21
  Original Simulation            5  13  2007 Yr    3 of   14 Time  13:21:21
  Original Simulation            5  14  2007 Yr    3 of   14 Time  13:21:21
  Original Simulation            5  15  2007 Yr    3 of   14 Time  13:21:21
  Original Simulation            5  16  2007 Yr    3 of   14 Time  13:21:22
  Original Simulation            5  17  2007 Yr    3 of   14 Time  13:21:22
  Original Simulation            5  18  2007 Yr    3 of   14 Time  13:21:22
  Original Simulation            5  19  2007 Yr    3 of   14 Time  13:21:22
  Original Simulation            5  20  2007 Yr    3 of   14 Time  13:21:22
  Original Simulation            5  21  2007 Yr    3 of   14 Time  13:21:22
  Original Simulation            5  22  2007 Yr    3 of   14 Time  13:21:22
  Original Simulation            5  23  2007 Yr    3 of   14 Time  13:21:22
  Original Simulation            5  24  2007 Yr    3 of   14 Time  13:21:22
  Original Simulation            5  25  2007 Yr    3 of   14 Time  13:21:22
  Original Simulation            5  26  2007 Yr    3 of   14 Time  13:21:22
  Original Simulation            5  27  2007 Yr    3 of   14 Time  13:21:22
  Original Simulation            5  28  2007 Yr    3 of   14 Time  13:21:22
  Original Simulation            5  29  2007 Yr    3 of   14 Time  13:21:22
  Original Simulation            5  30  2007 Yr    3 of   14 Time  13:21:22
  Original Simulation            5  31  2007 Yr    3 of   14 Time  13:21:22
  Original Simulation            6   1  2007 Yr    3 of   14 Time  13:21:22
  Original Simulation            6   2  2007 Yr    3 of   14 Time  13:21:22
  Original Simulation            6   3  2007 Yr    3 of   14 Time  13:21:22
  Original Simulation            6   4  2007 Yr    3 of   14 Time  13:21:22
  Original Simulation            6   5  2007 Yr    3 of   14 Time  13:21:22
  Original Simulation            6   6  2007 Yr    3 of   14 Time  13:21:22
  Original Simulation            6   7  2007 Yr    3 of   14 Time  13:21:22
  Original Simulation            6   8  2007 Yr    3 of   14 Time  13:21:22
  Original Simulation            6   9  2007 Yr    3 of   14 Time  13:21:22
  Original Simulation            6  10  2007 Yr    3 of   14 Time  13:21:22
  Original Simulation            6  11  2007 Yr    3 of   14 Time  13:21:22
  Original Simulation            6  12  2007 Yr    3 of   14 Time  13:21:22
  Original Simulation            6  13  2007 Yr    3 of   14 Time  13:21:22
  Original Simulation            6  14  2007 Yr    3 of   14 Time  13:21:22
  Original Simulation            6  15  2007 Yr    3 of   14 Time  13:21:22
  Original Simulation            6  16  2007 Yr    3 of   14 Time  13:21:22
  Original Simulation            6  17  2007 Yr    3 of   14 Time  13:21:22
  Original Simulation            6  18  2007 Yr    3 of   14 Time  13:21:22
  Original Simulation            6  19  2007 Yr    3 of   14 Time  13:21:22
  Original Simulation            6  20  2007 Yr    3 of   14 Time  13:21:22
  Original Simulation            6  21  2007 Yr    3 of   14 Time  13:21:22
  Original Simulation            6  22  2007 Yr    3 of   14 Time  13:21:22
  Original Simulation            6  23  2007 Yr    3 of   14 Time  13:21:23
  Original Simulation            6  24  2007 Yr    3 of   14 Time  13:21:23
  Original Simulation            6  25  2007 Yr    3 of   14 Time  13:21:23
  Original Simulation            6  26  2007 Yr    3 of   14 Time  13:21:23
  Original Simulation            6  27  2007 Yr    3 of   14 Time  13:21:23
  Original Simulation            6  28  2007 Yr    3 of   14 Time  13:21:23
  Original Simulation            6  29  2007 Yr    3 of   14 Time  13:21:23
  Original Simulation            6  30  2007 Yr    3 of   14 Time  13:21:23
  Original Simulation            7   1  2007 Yr    3 of   14 Time  13:21:23
  Original Simulation            7   2  2007 Yr    3 of   14 Time  13:21:23
  Original Simulation            7   3  2007 Yr    3 of   14 Time  13:21:23
  Original Simulation            7   4  2007 Yr    3 of   14 Time  13:21:23
  Original Simulation            7   5  2007 Yr    3 of   14 Time  13:21:23
  Original Simulation            7   6  2007 Yr    3 of   14 Time  13:21:23
  Original Simulation            7   7  2007 Yr    3 of   14 Time  13:21:23
  Original Simulation            7   8  2007 Yr    3 of   14 Time  13:21:23
  Original Simulation            7   9  2007 Yr    3 of   14 Time  13:21:23
  Original Simulation            7  10  2007 Yr    3 of   14 Time  13:21:23
  Original Simulation            7  11  2007 Yr    3 of   14 Time  13:21:23
  Original Simulation            7  12  2007 Yr    3 of   14 Time  13:21:23
  Original Simulation            7  13  2007 Yr    3 of   14 Time  13:21:23
  Original Simulation            7  14  2007 Yr    3 of   14 Time  13:21:23
  Original Simulation            7  15  2007 Yr    3 of   14 Time  13:21:23
  Original Simulation            7  16  2007 Yr    3 of   14 Time  13:21:23
  Original Simulation            7  17  2007 Yr    3 of   14 Time  13:21:23
  Original Simulation            7  18  2007 Yr    3 of   14 Time  13:21:23
  Original Simulation            7  19  2007 Yr    3 of   14 Time  13:21:23
  Original Simulation            7  20  2007 Yr    3 of   14 Time  13:21:23
  Original Simulation            7  21  2007 Yr    3 of   14 Time  13:21:23
  Original Simulation            7  22  2007 Yr    3 of   14 Time  13:21:23
  Original Simulation            7  23  2007 Yr    3 of   14 Time  13:21:23
  Original Simulation            7  24  2007 Yr    3 of   14 Time  13:21:23
  Original Simulation            7  25  2007 Yr    3 of   14 Time  13:21:23
  Original Simulation            7  26  2007 Yr    3 of   14 Time  13:21:23
  Original Simulation            7  27  2007 Yr    3 of   14 Time  13:21:23
  Original Simulation            7  28  2007 Yr    3 of   14 Time  13:21:23
  Original Simulation            7  29  2007 Yr    3 of   14 Time  13:21:23
  Original Simulation            7  30  2007 Yr    3 of   14 Time  13:21:23
  Original Simulation            7  31  2007 Yr    3 of   14 Time  13:21:24
  Original Simulation            8   1  2007 Yr    3 of   14 Time  13:21:24
  Original Simulation            8   2  2007 Yr    3 of   14 Time  13:21:24
  Original Simulation            8   3  2007 Yr    3 of   14 Time  13:21:24
  Original Simulation            8   4  2007 Yr    3 of   14 Time  13:21:24
  Original Simulation            8   5  2007 Yr    3 of   14 Time  13:21:24
  Original Simulation            8   6  2007 Yr    3 of   14 Time  13:21:24
  Original Simulation            8   7  2007 Yr    3 of   14 Time  13:21:24
  Original Simulation            8   8  2007 Yr    3 of   14 Time  13:21:24
  Original Simulation            8   9  2007 Yr    3 of   14 Time  13:21:24
  Original Simulation            8  10  2007 Yr    3 of   14 Time  13:21:24
  Original Simulation            8  11  2007 Yr    3 of   14 Time  13:21:24
  Original Simulation            8  12  2007 Yr    3 of   14 Time  13:21:24
  Original Simulation            8  13  2007 Yr    3 of   14 Time  13:21:24
  Original Simulation            8  14  2007 Yr    3 of   14 Time  13:21:24
  Original Simulation            8  15  2007 Yr    3 of   14 Time  13:21:24
  Original Simulation            8  16  2007 Yr    3 of   14 Time  13:21:24
  Original Simulation            8  17  2007 Yr    3 of   14 Time  13:21:24
  Original Simulation            8  18  2007 Yr    3 of   14 Time  13:21:24
  Original Simulation            8  19  2007 Yr    3 of   14 Time  13:21:24
  Original Simulation            8  20  2007 Yr    3 of   14 Time  13:21:24
  Original Simulation            8  21  2007 Yr    3 of   14 Time  13:21:24
  Original Simulation            8  22  2007 Yr    3 of   14 Time  13:21:24
  Original Simulation            8  23  2007 Yr    3 of   14 Time  13:21:24
  Original Simulation            8  24  2007 Yr    3 of   14 Time  13:21:24
  Original Simulation            8  25  2007 Yr    3 of   14 Time  13:21:24
  Original Simulation            8  26  2007 Yr    3 of   14 Time  13:21:24
  Original Simulation            8  27  2007 Yr    3 of   14 Time  13:21:24
  Original Simulation            8  28  2007 Yr    3 of   14 Time  13:21:24
  Original Simulation            8  29  2007 Yr    3 of   14 Time  13:21:24
  Original Simulation            8  30  2007 Yr    3 of   14 Time  13:21:24
  Original Simulation            8  31  2007 Yr    3 of   14 Time  13:21:24
  Original Simulation            9   1  2007 Yr    3 of   14 Time  13:21:24
  Original Simulation            9   2  2007 Yr    3 of   14 Time  13:21:24
  Original Simulation            9   3  2007 Yr    3 of   14 Time  13:21:24
  Original Simulation            9   4  2007 Yr    3 of   14 Time  13:21:24
  Original Simulation            9   5  2007 Yr    3 of   14 Time  13:21:24
  Original Simulation            9   6  2007 Yr    3 of   14 Time  13:21:25
  Original Simulation            9   7  2007 Yr    3 of   14 Time  13:21:25
  Original Simulation            9   8  2007 Yr    3 of   14 Time  13:21:25
  Original Simulation            9   9  2007 Yr    3 of   14 Time  13:21:25
  Original Simulation            9  10  2007 Yr    3 of   14 Time  13:21:25
  Original Simulation            9  11  2007 Yr    3 of   14 Time  13:21:25
  Original Simulation            9  12  2007 Yr    3 of   14 Time  13:21:25
  Original Simulation            9  13  2007 Yr    3 of   14 Time  13:21:25
  Original Simulation            9  14  2007 Yr    3 of   14 Time  13:21:25
  Original Simulation            9  15  2007 Yr    3 of   14 Time  13:21:25
  Original Simulation            9  16  2007 Yr    3 of   14 Time  13:21:25
  Original Simulation            9  17  2007 Yr    3 of   14 Time  13:21:25
  Original Simulation            9  18  2007 Yr    3 of   14 Time  13:21:25
  Original Simulation            9  19  2007 Yr    3 of   14 Time  13:21:25
  Original Simulation            9  20  2007 Yr    3 of   14 Time  13:21:25
  Original Simulation            9  21  2007 Yr    3 of   14 Time  13:21:25
  Original Simulation            9  22  2007 Yr    3 of   14 Time  13:21:25
  Original Simulation            9  23  2007 Yr    3 of   14 Time  13:21:25
  Original Simulation            9  24  2007 Yr    3 of   14 Time  13:21:25
  Original Simulation            9  25  2007 Yr    3 of   14 Time  13:21:25
  Original Simulation            9  26  2007 Yr    3 of   14 Time  13:21:25
  Original Simulation            9  27  2007 Yr    3 of   14 Time  13:21:25
  Original Simulation            9  28  2007 Yr    3 of   14 Time  13:21:25
  Original Simulation            9  29  2007 Yr    3 of   14 Time  13:21:25
  Original Simulation            9  30  2007 Yr    3 of   14 Time  13:21:25
  Original Simulation           10   1  2007 Yr    3 of   14 Time  13:21:25
  Original Simulation           10   2  2007 Yr    3 of   14 Time  13:21:25
  Original Simulation           10   3  2007 Yr    3 of   14 Time  13:21:25
  Original Simulation           10   4  2007 Yr    3 of   14 Time  13:21:25
  Original Simulation           10   5  2007 Yr    3 of   14 Time  13:21:25
  Original Simulation           10   6  2007 Yr    3 of   14 Time  13:21:25
  Original Simulation           10   7  2007 Yr    3 of   14 Time  13:21:25
  Original Simulation           10   8  2007 Yr    3 of   14 Time  13:21:25
  Original Simulation           10   9  2007 Yr    3 of   14 Time  13:21:25
  Original Simulation           10  10  2007 Yr    3 of   14 Time  13:21:25
  Original Simulation           10  11  2007 Yr    3 of   14 Time  13:21:25
  Original Simulation           10  12  2007 Yr    3 of   14 Time  13:21:26
  Original Simulation           10  13  2007 Yr    3 of   14 Time  13:21:26
  Original Simulation           10  14  2007 Yr    3 of   14 Time  13:21:26
  Original Simulation           10  15  2007 Yr    3 of   14 Time  13:21:26
  Original Simulation           10  16  2007 Yr    3 of   14 Time  13:21:26
  Original Simulation           10  17  2007 Yr    3 of   14 Time  13:21:26
  Original Simulation           10  18  2007 Yr    3 of   14 Time  13:21:26
  Original Simulation           10  19  2007 Yr    3 of   14 Time  13:21:26
  Original Simulation           10  20  2007 Yr    3 of   14 Time  13:21:26
  Original Simulation           10  21  2007 Yr    3 of   14 Time  13:21:26
  Original Simulation           10  22  2007 Yr    3 of   14 Time  13:21:26
  Original Simulation           10  23  2007 Yr    3 of   14 Time  13:21:26
  Original Simulation           10  24  2007 Yr    3 of   14 Time  13:21:26
  Original Simulation           10  25  2007 Yr    3 of   14 Time  13:21:26
  Original Simulation           10  26  2007 Yr    3 of   14 Time  13:21:26
[...]
  Original Simulation            4  18  2018 Yr   14 of   14 Time  13:23:36
  Original Simulation            4  19  2018 Yr   14 of   14 Time  13:23:36
  Original Simulation            4  20  2018 Yr   14 of   14 Time  13:23:36
  Original Simulation            4  21  2018 Yr   14 of   14 Time  13:23:36
  Original Simulation            4  22  2018 Yr   14 of   14 Time  13:23:36
  Original Simulation            4  23  2018 Yr   14 of   14 Time  13:23:36
  Original Simulation            4  24  2018 Yr   14 of   14 Time  13:23:36
  Original Simulation            4  25  2018 Yr   14 of   14 Time  13:23:36
  Original Simulation            4  26  2018 Yr   14 of   14 Time  13:23:36
  Original Simulation            4  27  2018 Yr   14 of   14 Time  13:23:36
  Original Simulation            4  28  2018 Yr   14 of   14 Time  13:23:36
  Original Simulation            4  29  2018 Yr   14 of   14 Time  13:23:36
  Original Simulation            4  30  2018 Yr   14 of   14 Time  13:23:36
  Original Simulation            5   1  2018 Yr   14 of   14 Time  13:23:36
  Original Simulation            5   2  2018 Yr   14 of   14 Time  13:23:36
  Original Simulation            5   3  2018 Yr   14 of   14 Time  13:23:36
  Original Simulation            5   4  2018 Yr   14 of   14 Time  13:23:36
  Original Simulation            5   5  2018 Yr   14 of   14 Time  13:23:36
  Original Simulation            5   6  2018 Yr   14 of   14 Time  13:23:36
  Original Simulation            5   7  2018 Yr   14 of   14 Time  13:23:36
  Original Simulation            5   8  2018 Yr   14 of   14 Time  13:23:36
  Original Simulation            5   9  2018 Yr   14 of   14 Time  13:23:36
  Original Simulation            5  10  2018 Yr   14 of   14 Time  13:23:36
  Original Simulation            5  11  2018 Yr   14 of   14 Time  13:23:36
  Original Simulation            5  12  2018 Yr   14 of   14 Time  13:23:36
  Original Simulation            5  13  2018 Yr   14 of   14 Time  13:23:36
  Original Simulation            5  14  2018 Yr   14 of   14 Time  13:23:36
  Original Simulation            5  15  2018 Yr   14 of   14 Time  13:23:36
  Original Simulation            5  16  2018 Yr   14 of   14 Time  13:23:36
  Original Simulation            5  17  2018 Yr   14 of   14 Time  13:23:37
  Original Simulation            5  18  2018 Yr   14 of   14 Time  13:23:37
  Original Simulation            5  19  2018 Yr   14 of   14 Time  13:23:37
  Original Simulation            5  20  2018 Yr   14 of   14 Time  13:23:37
  Original Simulation            5  21  2018 Yr   14 of   14 Time  13:23:37
  Original Simulation            5  22  2018 Yr   14 of   14 Time  13:23:37
  Original Simulation            5  23  2018 Yr   14 of   14 Time  13:23:37
  Original Simulation            5  24  2018 Yr   14 of   14 Time  13:23:37
  Original Simulation            5  25  2018 Yr   14 of   14 Time  13:23:37
  Original Simulation            5  26  2018 Yr   14 of   14 Time  13:23:37
  Original Simulation            5  27  2018 Yr   14 of   14 Time  13:23:37
  Original Simulation            5  28  2018 Yr   14 of   14 Time  13:23:37
  Original Simulation            5  29  2018 Yr   14 of   14 Time  13:23:37
  Original Simulation            5  30  2018 Yr   14 of   14 Time  13:23:37
  Original Simulation            5  31  2018 Yr   14 of   14 Time  13:23:37
  Original Simulation            6   1  2018 Yr   14 of   14 Time  13:23:37
  Original Simulation            6   2  2018 Yr   14 of   14 Time  13:23:37
  Original Simulation            6   3  2018 Yr   14 of   14 Time  13:23:37
  Original Simulation            6   4  2018 Yr   14 of   14 Time  13:23:37
  Original Simulation            6   5  2018 Yr   14 of   14 Time  13:23:37
  Original Simulation            6   6  2018 Yr   14 of   14 Time  13:23:37
  Original Simulation            6   7  2018 Yr   14 of   14 Time  13:23:37
  Original Simulation            6   8  2018 Yr   14 of   14 Time  13:23:37
  Original Simulation            6   9  2018 Yr   14 of   14 Time  13:23:37
  Original Simulation            6  10  2018 Yr   14 of   14 Time  13:23:37
  Original Simulation            6  11  2018 Yr   14 of   14 Time  13:23:37
  Original Simulation            6  12  2018 Yr   14 of   14 Time  13:23:37
  Original Simulation            6  13  2018 Yr   14 of   14 Time  13:23:37
  Original Simulation            6  14  2018 Yr   14 of   14 Time  13:23:37
  Original Simulation            6  15  2018 Yr   14 of   14 Time  13:23:37
  Original Simulation            6  16  2018 Yr   14 of   14 Time  13:23:37
  Original Simulation            6  17  2018 Yr   14 of   14 Time  13:23:37
  Original Simulation            6  18  2018 Yr   14 of   14 Time  13:23:37
  Original Simulation            6  19  2018 Yr   14 of   14 Time  13:23:38
  Original Simulation            6  20  2018 Yr   14 of   14 Time  13:23:38
  Original Simulation            6  21  2018 Yr   14 of   14 Time  13:23:38
  Original Simulation            6  22  2018 Yr   14 of   14 Time  13:23:38
  Original Simulation            6  23  2018 Yr   14 of   14 Time  13:23:38
  Original Simulation            6  24  2018 Yr   14 of   14 Time  13:23:38
  Original Simulation            6  25  2018 Yr   14 of   14 Time  13:23:38
  Original Simulation            6  26  2018 Yr   14 of   14 Time  13:23:38
  Original Simulation            6  27  2018 Yr   14 of   14 Time  13:23:38
  Original Simulation            6  28  2018 Yr   14 of   14 Time  13:23:38
  Original Simulation            6  29  2018 Yr   14 of   14 Time  13:23:38
  Original Simulation            6  30  2018 Yr   14 of   14 Time  13:23:38
  Original Simulation            7   1  2018 Yr   14 of   14 Time  13:23:38
  Original Simulation            7   2  2018 Yr   14 of   14 Time  13:23:38
  Original Simulation            7   3  2018 Yr   14 of   14 Time  13:23:38
  Original Simulation            7   4  2018 Yr   14 of   14 Time  13:23:38
  Original Simulation            7   5  2018 Yr   14 of   14 Time  13:23:38
  Original Simulation            7   6  2018 Yr   14 of   14 Time  13:23:38
  Original Simulation            7   7  2018 Yr   14 of   14 Time  13:23:38
  Original Simulation            7   8  2018 Yr   14 of   14 Time  13:23:38
  Original Simulation            7   9  2018 Yr   14 of   14 Time  13:23:38
  Original Simulation            7  10  2018 Yr   14 of   14 Time  13:23:38
  Original Simulation            7  11  2018 Yr   14 of   14 Time  13:23:38
  Original Simulation            7  12  2018 Yr   14 of   14 Time  13:23:38
  Original Simulation            7  13  2018 Yr   14 of   14 Time  13:23:38
  Original Simulation            7  14  2018 Yr   14 of   14 Time  13:23:38
  Original Simulation            7  15  2018 Yr   14 of   14 Time  13:23:38
  Original Simulation            7  16  2018 Yr   14 of   14 Time  13:23:38
  Original Simulation            7  17  2018 Yr   14 of   14 Time  13:23:38
  Original Simulation            7  18  2018 Yr   14 of   14 Time  13:23:38
  Original Simulation            7  19  2018 Yr   14 of   14 Time  13:23:38
  Original Simulation            7  20  2018 Yr   14 of   14 Time  13:23:38
  Original Simulation            7  21  2018 Yr   14 of   14 Time  13:23:39
  Original Simulation            7  22  2018 Yr   14 of   14 Time  13:23:39
  Original Simulation            7  23  2018 Yr   14 of   14 Time  13:23:39
  Original Simulation            7  24  2018 Yr   14 of   14 Time  13:23:39
  Original Simulation            7  25  2018 Yr   14 of   14 Time  13:23:39
  Original Simulation            7  26  2018 Yr   14 of   14 Time  13:23:39
  Original Simulation            7  27  2018 Yr   14 of   14 Time  13:23:39
  Original Simulation            7  28  2018 Yr   14 of   14 Time  13:23:39
  Original Simulation            7  29  2018 Yr   14 of   14 Time  13:23:39
  Original Simulation            7  30  2018 Yr   14 of   14 Time  13:23:39
  Original Simulation            7  31  2018 Yr   14 of   14 Time  13:23:39
  Original Simulation            8   1  2018 Yr   14 of   14 Time  13:23:39
  Original Simulation            8   2  2018 Yr   14 of   14 Time  13:23:39
  Original Simulation            8   3  2018 Yr   14 of   14 Time  13:23:39
  Original Simulation            8   4  2018 Yr   14 of   14 Time  13:23:39
  Original Simulation            8   5  2018 Yr   14 of   14 Time  13:23:39
  Original Simulation            8   6  2018 Yr   14 of   14 Time  13:23:39
  Original Simulation            8   7  2018 Yr   14 of   14 Time  13:23:39
  Original Simulation            8   8  2018 Yr   14 of   14 Time  13:23:39
  Original Simulation            8   9  2018 Yr   14 of   14 Time  13:23:39
  Original Simulation            8  10  2018 Yr   14 of   14 Time  13:23:39
  Original Simulation            8  11  2018 Yr   14 of   14 Time  13:23:39
  Original Simulation            8  12  2018 Yr   14 of   14 Time  13:23:39
  Original Simulation            8  13  2018 Yr   14 of   14 Time  13:23:39
  Original Simulation            8  14  2018 Yr   14 of   14 Time  13:23:39
  Original Simulation            8  15  2018 Yr   14 of   14 Time  13:23:39
  Original Simulation            8  16  2018 Yr   14 of   14 Time  13:23:39
  Original Simulation            8  17  2018 Yr   14 of   14 Time  13:23:39
  Original Simulation            8  18  2018 Yr   14 of   14 Time  13:23:39
  Original Simulation            8  19  2018 Yr   14 of   14 Time  13:23:39
  Original Simulation            8  20  2018 Yr   14 of   14 Time  13:23:39
  Original Simulation            8  21  2018 Yr   14 of   14 Time  13:23:39
  Original Simulation            8  22  2018 Yr   14 of   14 Time  13:23:39
  Original Simulation            8  23  2018 Yr   14 of   14 Time  13:23:40
  Original Simulation            8  24  2018 Yr   14 of   14 Time  13:23:40
  Original Simulation            8  25  2018 Yr   14 of   14 Time  13:23:40
  Original Simulation            8  26  2018 Yr   14 of   14 Time  13:23:40
  Original Simulation            8  27  2018 Yr   14 of   14 Time  13:23:40
  Original Simulation            8  28  2018 Yr   14 of   14 Time  13:23:40
  Original Simulation            8  29  2018 Yr   14 of   14 Time  13:23:40
  Original Simulation            8  30  2018 Yr   14 of   14 Time  13:23:40
  Original Simulation            8  31  2018 Yr   14 of   14 Time  13:23:40
  Original Simulation            9   1  2018 Yr   14 of   14 Time  13:23:40
  Original Simulation            9   2  2018 Yr   14 of   14 Time  13:23:40
  Original Simulation            9   3  2018 Yr   14 of   14 Time  13:23:40
  Original Simulation            9   4  2018 Yr   14 of   14 Time  13:23:40
  Original Simulation            9   5  2018 Yr   14 of   14 Time  13:23:40
  Original Simulation            9   6  2018 Yr   14 of   14 Time  13:23:40
  Original Simulation            9   7  2018 Yr   14 of   14 Time  13:23:40
  Original Simulation            9   8  2018 Yr   14 of   14 Time  13:23:40
  Original Simulation            9   9  2018 Yr   14 of   14 Time  13:23:40
  Original Simulation            9  10  2018 Yr   14 of   14 Time  13:23:40
  Original Simulation            9  11  2018 Yr   14 of   14 Time  13:23:40
  Original Simulation            9  12  2018 Yr   14 of   14 Time  13:23:40
  Original Simulation            9  13  2018 Yr   14 of   14 Time  13:23:40
  Original Simulation            9  14  2018 Yr   14 of   14 Time  13:23:40
  Original Simulation            9  15  2018 Yr   14 of   14 Time  13:23:40
  Original Simulation            9  16  2018 Yr   14 of   14 Time  13:23:40
  Original Simulation            9  17  2018 Yr   14 of   14 Time  13:23:40
  Original Simulation            9  18  2018 Yr   14 of   14 Time  13:23:40
  Original Simulation            9  19  2018 Yr   14 of   14 Time  13:23:40
  Original Simulation            9  20  2018 Yr   14 of   14 Time  13:23:40
  Original Simulation            9  21  2018 Yr   14 of   14 Time  13:23:40
  Original Simulation            9  22  2018 Yr   14 of   14 Time  13:23:40
  Original Simulation            9  23  2018 Yr   14 of   14 Time  13:23:40
  Original Simulation            9  24  2018 Yr   14 of   14 Time  13:23:40
  Original Simulation            9  25  2018 Yr   14 of   14 Time  13:23:41
  Original Simulation            9  26  2018 Yr   14 of   14 Time  13:23:41
  Original Simulation            9  27  2018 Yr   14 of   14 Time  13:23:41
  Original Simulation            9  28  2018 Yr   14 of   14 Time  13:23:41
  Original Simulation            9  29  2018 Yr   14 of   14 Time  13:23:41
  Original Simulation            9  30  2018 Yr   14 of   14 Time  13:23:41
  Original Simulation           10   1  2018 Yr   14 of   14 Time  13:23:41
  Original Simulation           10   2  2018 Yr   14 of   14 Time  13:23:41
  Original Simulation           10   3  2018 Yr   14 of   14 Time  13:23:41
  Original Simulation           10   4  2018 Yr   14 of   14 Time  13:23:41
  Original Simulation           10   5  2018 Yr   14 of   14 Time  13:23:41
  Original Simulation           10   6  2018 Yr   14 of   14 Time  13:23:41
  Original Simulation           10   7  2018 Yr   14 of   14 Time  13:23:41
  Original Simulation           10   8  2018 Yr   14 of   14 Time  13:23:41
  Original Simulation           10   9  2018 Yr   14 of   14 Time  13:23:41
  Original Simulation           10  10  2018 Yr   14 of   14 Time  13:23:41
  Original Simulation           10  11  2018 Yr   14 of   14 Time  13:23:41
  Original Simulation           10  12  2018 Yr   14 of   14 Time  13:23:41
  Original Simulation           10  13  2018 Yr   14 of   14 Time  13:23:41
  Original Simulation           10  14  2018 Yr   14 of   14 Time  13:23:41
  Original Simulation           10  15  2018 Yr   14 of   14 Time  13:23:41
  Original Simulation           10  16  2018 Yr   14 of   14 Time  13:23:41
  Original Simulation           10  17  2018 Yr   14 of   14 Time  13:23:41
  Original Simulation           10  18  2018 Yr   14 of   14 Time  13:23:41
  Original Simulation           10  19  2018 Yr   14 of   14 Time  13:23:41
  Original Simulation           10  20  2018 Yr   14 of   14 Time  13:23:41
  Original Simulation           10  21  2018 Yr   14 of   14 Time  13:23:41
  Original Simulation           10  22  2018 Yr   14 of   14 Time  13:23:41
  Original Simulation           10  23  2018 Yr   14 of   14 Time  13:23:41
  Original Simulation           10  24  2018 Yr   14 of   14 Time  13:23:41
  Original Simulation           10  25  2018 Yr   14 of   14 Time  13:23:41
  Original Simulation           10  26  2018 Yr   14 of   14 Time  13:23:41
  Original Simulation           10  27  2018 Yr   14 of   14 Time  13:23:41
  Original Simulation           10  28  2018 Yr   14 of   14 Time  13:23:42
  Original Simulation           10  29  2018 Yr   14 of   14 Time  13:23:42
  Original Simulation           10  30  2018 Yr   14 of   14 Time  13:23:42
  Original Simulation           10  31  2018 Yr   14 of   14 Time  13:23:42
  Original Simulation           11   1  2018 Yr   14 of   14 Time  13:23:42
  Original Simulation           11   2  2018 Yr   14 of   14 Time  13:23:42
  Original Simulation           11   3  2018 Yr   14 of   14 Time  13:23:42
  Original Simulation           11   4  2018 Yr   14 of   14 Time  13:23:42
  Original Simulation           11   5  2018 Yr   14 of   14 Time  13:23:42
  Original Simulation           11   6  2018 Yr   14 of   14 Time  13:23:42
  Original Simulation           11   7  2018 Yr   14 of   14 Time  13:23:42
  Original Simulation           11   8  2018 Yr   14 of   14 Time  13:23:42
  Original Simulation           11   9  2018 Yr   14 of   14 Time  13:23:42
  Original Simulation           11  10  2018 Yr   14 of   14 Time  13:23:42
  Original Simulation           11  11  2018 Yr   14 of   14 Time  13:23:42
  Original Simulation           11  12  2018 Yr   14 of   14 Time  13:23:42
  Original Simulation           11  13  2018 Yr   14 of   14 Time  13:23:42
  Original Simulation           11  14  2018 Yr   14 of   14 Time  13:23:42
  Original Simulation           11  15  2018 Yr   14 of   14 Time  13:23:42
  Original Simulation           11  16  2018 Yr   14 of   14 Time  13:23:42
  Original Simulation           11  17  2018 Yr   14 of   14 Time  13:23:42
  Original Simulation           11  18  2018 Yr   14 of   14 Time  13:23:42
  Original Simulation           11  19  2018 Yr   14 of   14 Time  13:23:42
  Original Simulation           11  20  2018 Yr   14 of   14 Time  13:23:42
  Original Simulation           11  21  2018 Yr   14 of   14 Time  13:23:42
  Original Simulation           11  22  2018 Yr   14 of   14 Time  13:23:42
  Original Simulation           11  23  2018 Yr   14 of   14 Time  13:23:42
  Original Simulation           11  24  2018 Yr   14 of   14 Time  13:23:42
  Original Simulation           11  25  2018 Yr   14 of   14 Time  13:23:42
  Original Simulation           11  26  2018 Yr   14 of   14 Time  13:23:42
  Original Simulation           11  27  2018 Yr   14 of   14 Time  13:23:42
  Original Simulation           11  28  2018 Yr   14 of   14 Time  13:23:42
  Original Simulation           11  29  2018 Yr   14 of   14 Time  13:23:42
  Original Simulation           11  30  2018 Yr   14 of   14 Time  13:23:42
  Original Simulation           12   1  2018 Yr   14 of   14 Time  13:23:43
  Original Simulation           12   2  2018 Yr   14 of   14 Time  13:23:43
  Original Simulation           12   3  2018 Yr   14 of   14 Time  13:23:43
  Original Simulation           12   4  2018 Yr   14 of   14 Time  13:23:43
  Original Simulation           12   5  2018 Yr   14 of   14 Time  13:23:43
  Original Simulation           12   6  2018 Yr   14 of   14 Time  13:23:43
  Original Simulation           12   7  2018 Yr   14 of   14 Time  13:23:43
  Original Simulation           12   8  2018 Yr   14 of   14 Time  13:23:43
  Original Simulation           12   9  2018 Yr   14 of   14 Time  13:23:43
  Original Simulation           12  10  2018 Yr   14 of   14 Time  13:23:43
  Original Simulation           12  11  2018 Yr   14 of   14 Time  13:23:43
  Original Simulation           12  12  2018 Yr   14 of   14 Time  13:23:43
  Original Simulation           12  13  2018 Yr   14 of   14 Time  13:23:43
  Original Simulation           12  14  2018 Yr   14 of   14 Time  13:23:43
  Original Simulation           12  15  2018 Yr   14 of   14 Time  13:23:43
  Original Simulation           12  16  2018 Yr   14 of   14 Time  13:23:43
  Original Simulation           12  17  2018 Yr   14 of   14 Time  13:23:43
  Original Simulation           12  18  2018 Yr   14 of   14 Time  13:23:43
  Original Simulation           12  19  2018 Yr   14 of   14 Time  13:23:43
  Original Simulation           12  20  2018 Yr   14 of   14 Time  13:23:43
  Original Simulation           12  21  2018 Yr   14 of   14 Time  13:23:43
  Original Simulation           12  22  2018 Yr   14 of   14 Time  13:23:43
  Original Simulation           12  23  2018 Yr   14 of   14 Time  13:23:43
  Original Simulation           12  24  2018 Yr   14 of   14 Time  13:23:43
  Original Simulation           12  25  2018 Yr   14 of   14 Time  13:23:43
  Original Simulation           12  26  2018 Yr   14 of   14 Time  13:23:43
  Original Simulation           12  27  2018 Yr   14 of   14 Time  13:23:43
  Original Simulation           12  28  2018 Yr   14 of   14 Time  13:23:43
  Original Simulation           12  29  2018 Yr   14 of   14 Time  13:23:43
  Original Simulation           12  30  2018 Yr   14 of   14 Time  13:23:43
  Original Simulation           12  31  2018 Yr   14 of   14 Time  13:23:43

 Execution successfully completed 

  Date of Sim  11/18/2025 Time  13:23:45
